WARNING: physical memory size is smaller than virtual memory size.
WARNING: option --warmup_instructions is deprecated. Use --warmup-instructions instead.
WARNING: option --simulation_instructions is deprecated. Use --simulation-instructions instead.

*** ChampSim Multicore Out-of-Order Simulator ***
Warmup Instructions: 5000000
Simulation Instructions: 20000000
Number of CPUs: 1
Page size: 4096

CPU 0 PAg branch predictor
Off-chip DRAM Size: 4 GiB Channels: 1 Width: 64-bit Data Race: 3200 MT/s
Warmup finished CPU 0 instructions: 5000001 cycles: 1250181 cumulative IPC: 3.999 (Simulation time: 00 hr 00 min 38 sec)
Warmup complete CPU 0 instructions: 5000001 cycles: 1250181 cumulative IPC: 3.999 (Simulation time: 00 hr 00 min 38 sec)
Heartbeat CPU 0 instructions: 10000004 cycles: 2560776 heartbeat IPC: 3.905 cumulative IPC: 3.815 (Simulation time: 00 hr 01 min 23 sec)
Heartbeat CPU 0 instructions: 20000004 cycles: 5681352 heartbeat IPC: 3.205 cumulative IPC: 3.385 (Simulation time: 00 hr 02 min 58 sec)
Simulation finished CPU 0 instructions: 20000004 cycles: 5935270 cumulative IPC: 3.37 (Simulation time: 00 hr 03 min 44 sec)
Simulation complete CPU 0 instructions: 20000004 cycles: 5935270 cumulative IPC: 3.37 (Simulation time: 00 hr 03 min 44 sec)

ChampSim completed all CPUs

=== Simulation ===
CPU 0 runs /home/igor/Documents/traces/600.perlbench_s-1273B.champsimtrace.xz
Region of Interest Statistics

CPU 0 cumulative IPC: 3.37 instructions: 20000004 cycles: 5935270
CPU 0 Branch Prediction Accuracy: 98.95% MPKI: 1.399 Average ROB Occupancy at Mispredict: 116.8
Branch type MPKI
BRANCH_DIRECT_JUMP: 0.0194
BRANCH_INDIRECT: 0.328
BRANCH_CONDITIONAL: 1.05
BRANCH_DIRECT_CALL: 0.0009
BRANCH_INDIRECT_CALL: 0.0004
BRANCH_RETURN: 0.0009

LLC TOTAL        ACCESS:       1180 HIT:          0 MISS:       1180
LLC LOAD         ACCESS:       1058 HIT:          0 MISS:       1058
LLC RFO          ACCESS:         30 HIT:          0 MISS:         30
LLC PREFETCH     ACCESS:          0 HIT:          0 MISS:          0
LLC WRITE        ACCESS:          0 HIT:          0 MISS:          0
LLC TRANSLATION  ACCESS:         92 HIT:          0 MISS:         92
LLC PREFETCH REQUESTED:          0 ISSUED:          0 USEFUL:          0 USELESS:          0
LLC AVERAGE MISS LATENCY: 176.6 cycles
cpu0_DTLB TOTAL        ACCESS:    4605780 HIT:    4592873 MISS:      12907
cpu0_DTLB LOAD         ACCESS:    4605780 HIT:    4592873 MISS:      12907
cpu0_DTLB RFO          ACCESS:          0 HIT:          0 MISS:          0
cpu0_DTLB PREFETCH     ACCESS:          0 HIT:          0 MISS:          0
cpu0_DTLB WRITE        ACCESS:          0 HIT:          0 MISS:          0
cpu0_DTLB TRANSLATION  ACCESS:          0 HIT:          0 MISS:          0
cpu0_DTLB PREFETCH REQUESTED:          0 ISSUED:          0 USEFUL:          0 USELESS:          0
cpu0_DTLB AVERAGE MISS LATENCY: 10.59 cycles
cpu0_ITLB TOTAL        ACCESS:      14264 HIT:      14061 MISS:        203
cpu0_ITLB LOAD         ACCESS:      14264 HIT:      14061 MISS:        203
cpu0_ITLB RFO          ACCESS:          0 HIT:          0 MISS:          0
cpu0_ITLB PREFETCH     ACCESS:          0 HIT:          0 MISS:          0
cpu0_ITLB WRITE        ACCESS:          0 HIT:          0 MISS:          0
cpu0_ITLB TRANSLATION  ACCESS:          0 HIT:          0 MISS:          0
cpu0_ITLB PREFETCH REQUESTED:          0 ISSUED:          0 USEFUL:          0 USELESS:          0
cpu0_ITLB AVERAGE MISS LATENCY: 2.872 cycles
cpu0_L1D TOTAL        ACCESS:    6690650 HIT:    6688034 MISS:       2616
cpu0_L1D LOAD         ACCESS:    2269693 HIT:    2267345 MISS:       2348
cpu0_L1D RFO          ACCESS:          0 HIT:          0 MISS:          0
cpu0_L1D PREFETCH     ACCESS:          0 HIT:          0 MISS:          0
cpu0_L1D WRITE        ACCESS:    4420807 HIT:    4420662 MISS:        145
cpu0_L1D TRANSLATION  ACCESS:        150 HIT:         27 MISS:        123
cpu0_L1D PREFETCH REQUESTED:          0 ISSUED:          0 USEFUL:          0 USELESS:          0
cpu0_L1D AVERAGE MISS LATENCY: 82.39 cycles
cpu0_L1I TOTAL        ACCESS:      16276 HIT:      15542 MISS:        734
cpu0_L1I LOAD         ACCESS:      16276 HIT:      15542 MISS:        734
cpu0_L1I RFO          ACCESS:          0 HIT:          0 MISS:          0
cpu0_L1I PREFETCH     ACCESS:          0 HIT:          0 MISS:          0
cpu0_L1I WRITE        ACCESS:          0 HIT:          0 MISS:          0
cpu0_L1I TRANSLATION  ACCESS:          0 HIT:          0 MISS:          0
cpu0_L1I PREFETCH REQUESTED:          0 ISSUED:          0 USEFUL:          0 USELESS:          0
cpu0_L1I AVERAGE MISS LATENCY: 19.01 cycles
cpu0_L2C TOTAL        ACCESS:       1869 HIT:        689 MISS:       1180
cpu0_L2C LOAD         ACCESS:       1581 HIT:        523 MISS:       1058
cpu0_L2C RFO          ACCESS:         44 HIT:         14 MISS:         30
cpu0_L2C PREFETCH     ACCESS:          0 HIT:          0 MISS:          0
cpu0_L2C WRITE        ACCESS:        121 HIT:        121 MISS:          0
cpu0_L2C TRANSLATION  ACCESS:        123 HIT:         31 MISS:         92
cpu0_L2C PREFETCH REQUESTED:          0 ISSUED:          0 USEFUL:          0 USELESS:          0
cpu0_L2C AVERAGE MISS LATENCY: 197.6 cycles
cpu0_STLB TOTAL        ACCESS:      11340 HIT:      11199 MISS:        141
cpu0_STLB LOAD         ACCESS:      11340 HIT:      11199 MISS:        141
cpu0_STLB RFO          ACCESS:          0 HIT:          0 MISS:          0
cpu0_STLB PREFETCH     ACCESS:          0 HIT:          0 MISS:          0
cpu0_STLB WRITE        ACCESS:          0 HIT:          0 MISS:          0
cpu0_STLB TRANSLATION  ACCESS:          0 HIT:          0 MISS:          0
cpu0_STLB PREFETCH REQUESTED:          0 ISSUED:          0 USEFUL:          0 USELESS:          0
cpu0_STLB AVERAGE MISS LATENCY: 393.8 cycles

DRAM Statistics

Channel 0 RQ ROW_BUFFER_HIT:        393
  ROW_BUFFER_MISS:        787
 AVG DBUS CONGESTED CYCLE: 3.811
WQ ROW_BUFFER_HIT: Channel 0 
  ROW_BUFFER_MISS:          0
  FULL:          0
