WARNING: physical memory size is smaller than virtual memory size.
WARNING: option --warmup_instructions is deprecated. Use --warmup-instructions instead.
WARNING: option --simulation_instructions is deprecated. Use --simulation-instructions instead.

*** ChampSim Multicore Out-of-Order Simulator ***
Warmup Instructions: 5000000
Simulation Instructions: 20000000
Number of CPUs: 1
Page size: 4096

CPU 0 PAg branch predictor
Off-chip DRAM Size: 4 GiB Channels: 1 Width: 64-bit Data Race: 3200 MT/s
Warmup finished CPU 0 instructions: 5000000 cycles: 1250045 cumulative IPC: 4 (Simulation time: 00 hr 00 min 37 sec)
Warmup complete CPU 0 instructions: 5000000 cycles: 1250045 cumulative IPC: 4 (Simulation time: 00 hr 00 min 37 sec)
Heartbeat CPU 0 instructions: 10000002 cycles: 3694803 heartbeat IPC: 2.707 cumulative IPC: 2.045 (Simulation time: 00 hr 01 min 33 sec)
Heartbeat CPU 0 instructions: 20000000 cycles: 8467836 heartbeat IPC: 2.095 cumulative IPC: 2.078 (Simulation time: 00 hr 03 min 01 sec)
Simulation finished CPU 0 instructions: 20000000 cycles: 9605836 cumulative IPC: 2.082 (Simulation time: 00 hr 03 min 28 sec)
Simulation complete CPU 0 instructions: 20000000 cycles: 9605836 cumulative IPC: 2.082 (Simulation time: 00 hr 03 min 28 sec)

ChampSim completed all CPUs

=== Simulation ===
CPU 0 runs /home/igor/Documents/traces/621.wrf_s-575B.champsimtrace.xz
Region of Interest Statistics

CPU 0 cumulative IPC: 2.082 instructions: 20000000 cycles: 9605836
CPU 0 Branch Prediction Accuracy: 96% MPKI: 5.334 Average ROB Occupancy at Mispredict: 87.23
Branch type MPKI
BRANCH_DIRECT_JUMP: 0.0008
BRANCH_INDIRECT: 0
BRANCH_CONDITIONAL: 5.31
BRANCH_DIRECT_CALL: 0.0039
BRANCH_INDIRECT_CALL: 0
BRANCH_RETURN: 0.0179

LLC TOTAL        ACCESS:       1058 HIT:          0 MISS:       1058
LLC LOAD         ACCESS:        578 HIT:          0 MISS:        578
LLC RFO          ACCESS:        405 HIT:          0 MISS:        405
LLC PREFETCH     ACCESS:          0 HIT:          0 MISS:          0
LLC WRITE        ACCESS:          0 HIT:          0 MISS:          0
LLC TRANSLATION  ACCESS:         75 HIT:          0 MISS:         75
LLC PREFETCH REQUESTED:          0 ISSUED:          0 USEFUL:          0 USELESS:          0
LLC AVERAGE MISS LATENCY: 180.7 cycles
cpu0_DTLB TOTAL        ACCESS:    3146111 HIT:    3145335 MISS:        776
cpu0_DTLB LOAD         ACCESS:    3146111 HIT:    3145335 MISS:        776
cpu0_DTLB RFO          ACCESS:          0 HIT:          0 MISS:          0
cpu0_DTLB PREFETCH     ACCESS:          0 HIT:          0 MISS:          0
cpu0_DTLB WRITE        ACCESS:          0 HIT:          0 MISS:          0
cpu0_DTLB TRANSLATION  ACCESS:          0 HIT:          0 MISS:          0
cpu0_DTLB PREFETCH REQUESTED:          0 ISSUED:          0 USEFUL:          0 USELESS:          0
cpu0_DTLB AVERAGE MISS LATENCY: 35.42 cycles
cpu0_ITLB TOTAL        ACCESS:      98567 HIT:      98548 MISS:         19
cpu0_ITLB LOAD         ACCESS:      98567 HIT:      98548 MISS:         19
cpu0_ITLB RFO          ACCESS:          0 HIT:          0 MISS:          0
cpu0_ITLB PREFETCH     ACCESS:          0 HIT:          0 MISS:          0
cpu0_ITLB WRITE        ACCESS:          0 HIT:          0 MISS:          0
cpu0_ITLB TRANSLATION  ACCESS:          0 HIT:          0 MISS:          0
cpu0_ITLB PREFETCH REQUESTED:          0 ISSUED:          0 USEFUL:          0 USELESS:          0
cpu0_ITLB AVERAGE MISS LATENCY: 222.9 cycles
cpu0_L1D TOTAL        ACCESS:    3780793 HIT:    3778842 MISS:       1951
cpu0_L1D LOAD         ACCESS:    3004461 HIT:    3003710 MISS:        751
cpu0_L1D RFO          ACCESS:          0 HIT:          0 MISS:          0
cpu0_L1D PREFETCH     ACCESS:          0 HIT:          0 MISS:          0
cpu0_L1D WRITE        ACCESS:     776247 HIT:     775122 MISS:       1125
cpu0_L1D TRANSLATION  ACCESS:         85 HIT:         10 MISS:         75
cpu0_L1D PREFETCH REQUESTED:          0 ISSUED:          0 USEFUL:          0 USELESS:          0
cpu0_L1D AVERAGE MISS LATENCY: 76.12 cycles
cpu0_L1I TOTAL        ACCESS:     115310 HIT:     114835 MISS:        475
cpu0_L1I LOAD         ACCESS:     115310 HIT:     114835 MISS:        475
cpu0_L1I RFO          ACCESS:          0 HIT:          0 MISS:          0
cpu0_L1I PREFETCH     ACCESS:          0 HIT:          0 MISS:          0
cpu0_L1I WRITE        ACCESS:          0 HIT:          0 MISS:          0
cpu0_L1I TRANSLATION  ACCESS:          0 HIT:          0 MISS:          0
cpu0_L1I PREFETCH REQUESTED:          0 ISSUED:          0 USEFUL:          0 USELESS:          0
cpu0_L1I AVERAGE MISS LATENCY: 118.3 cycles
cpu0_L2C TOTAL        ACCESS:       1238 HIT:        180 MISS:       1058
cpu0_L2C LOAD         ACCESS:        670 HIT:         92 MISS:        578
cpu0_L2C RFO          ACCESS:        408 HIT:          3 MISS:        405
cpu0_L2C PREFETCH     ACCESS:          0 HIT:          0 MISS:          0
cpu0_L2C WRITE        ACCESS:         85 HIT:         85 MISS:          0
cpu0_L2C TRANSLATION  ACCESS:         75 HIT:          0 MISS:         75
cpu0_L2C PREFETCH REQUESTED:          0 ISSUED:          0 USEFUL:          0 USELESS:          0
cpu0_L2C AVERAGE MISS LATENCY: 201.7 cycles
cpu0_STLB TOTAL        ACCESS:        457 HIT:        386 MISS:         71
cpu0_STLB LOAD         ACCESS:        457 HIT:        386 MISS:         71
cpu0_STLB RFO          ACCESS:          0 HIT:          0 MISS:          0
cpu0_STLB PREFETCH     ACCESS:          0 HIT:          0 MISS:          0
cpu0_STLB WRITE        ACCESS:          0 HIT:          0 MISS:          0
cpu0_STLB TRANSLATION  ACCESS:          0 HIT:          0 MISS:          0
cpu0_STLB PREFETCH REQUESTED:          0 ISSUED:          0 USEFUL:          0 USELESS:          0
cpu0_STLB AVERAGE MISS LATENCY: 489.4 cycles

DRAM Statistics

Channel 0 RQ ROW_BUFFER_HIT:        344
  ROW_BUFFER_MISS:        714
 AVG DBUS CONGESTED CYCLE: 3.807
WQ ROW_BUFFER_HIT: Channel 0 
  ROW_BUFFER_MISS:          0
  FULL:          0
