WARNING: physical memory size is smaller than virtual memory size.
WARNING: option --warmup_instructions is deprecated. Use --warmup-instructions instead.
WARNING: option --simulation_instructions is deprecated. Use --simulation-instructions instead.

*** ChampSim Multicore Out-of-Order Simulator ***
Warmup Instructions: 5000000
Simulation Instructions: 20000000
Number of CPUs: 1
Page size: 4096

CPU 0 PAg branch predictor
Off-chip DRAM Size: 4 GiB Channels: 1 Width: 64-bit Data Race: 3200 MT/s
Warmup finished CPU 0 instructions: 5000000 cycles: 1250049 cumulative IPC: 4 (Simulation time: 00 hr 00 min 29 sec)
Warmup complete CPU 0 instructions: 5000000 cycles: 1250049 cumulative IPC: 4 (Simulation time: 00 hr 00 min 29 sec)
Heartbeat CPU 0 instructions: 10000001 cycles: 2579121 heartbeat IPC: 3.877 cumulative IPC: 3.762 (Simulation time: 00 hr 01 min 05 sec)
Heartbeat CPU 0 instructions: 20000002 cycles: 5230055 heartbeat IPC: 3.772 cumulative IPC: 3.769 (Simulation time: 00 hr 02 min 20 sec)
Simulation finished CPU 0 instructions: 20000002 cycles: 5289844 cumulative IPC: 3.781 (Simulation time: 00 hr 02 min 57 sec)
Simulation complete CPU 0 instructions: 20000002 cycles: 5289844 cumulative IPC: 3.781 (Simulation time: 00 hr 02 min 57 sec)

ChampSim completed all CPUs

=== Simulation ===
CPU 0 runs /home/igor/Documents/traces/625.x264_s-12B.champsimtrace.xz
Region of Interest Statistics

CPU 0 cumulative IPC: 3.781 instructions: 20000002 cycles: 5289844
CPU 0 Branch Prediction Accuracy: 99.17% MPKI: 0.3119 Average ROB Occupancy at Mispredict: 210.6
Branch type MPKI
BRANCH_DIRECT_JUMP: 0.00085
BRANCH_INDIRECT: 0.0002
BRANCH_CONDITIONAL: 0.304
BRANCH_DIRECT_CALL: 0.00035
BRANCH_INDIRECT_CALL: 0.00555
BRANCH_RETURN: 0.00145

LLC TOTAL        ACCESS:       5299 HIT:        260 MISS:       5039
LLC LOAD         ACCESS:       5052 HIT:        259 MISS:       4793
LLC RFO          ACCESS:        194 HIT:          0 MISS:        194
LLC PREFETCH     ACCESS:          0 HIT:          0 MISS:          0
LLC WRITE        ACCESS:          1 HIT:          1 MISS:          0
LLC TRANSLATION  ACCESS:         52 HIT:          0 MISS:         52
LLC PREFETCH REQUESTED:          0 ISSUED:          0 USEFUL:          0 USELESS:          0
LLC AVERAGE MISS LATENCY: 106.1 cycles
cpu0_DTLB TOTAL        ACCESS:    3178605 HIT:    3173785 MISS:       4820
cpu0_DTLB LOAD         ACCESS:    3178605 HIT:    3173785 MISS:       4820
cpu0_DTLB RFO          ACCESS:          0 HIT:          0 MISS:          0
cpu0_DTLB PREFETCH     ACCESS:          0 HIT:          0 MISS:          0
cpu0_DTLB WRITE        ACCESS:          0 HIT:          0 MISS:          0
cpu0_DTLB TRANSLATION  ACCESS:          0 HIT:          0 MISS:          0
cpu0_DTLB PREFETCH REQUESTED:          0 ISSUED:          0 USEFUL:          0 USELESS:          0
cpu0_DTLB AVERAGE MISS LATENCY: 7.865 cycles
cpu0_ITLB TOTAL        ACCESS:     242454 HIT:     242417 MISS:         37
cpu0_ITLB LOAD         ACCESS:     242454 HIT:     242417 MISS:         37
cpu0_ITLB RFO          ACCESS:          0 HIT:          0 MISS:          0
cpu0_ITLB PREFETCH     ACCESS:          0 HIT:          0 MISS:          0
cpu0_ITLB WRITE        ACCESS:          0 HIT:          0 MISS:          0
cpu0_ITLB TRANSLATION  ACCESS:          0 HIT:          0 MISS:          0
cpu0_ITLB PREFETCH REQUESTED:          0 ISSUED:          0 USEFUL:          0 USELESS:          0
cpu0_ITLB AVERAGE MISS LATENCY: 108.6 cycles
cpu0_L1D TOTAL        ACCESS:    4171987 HIT:    4131834 MISS:      40153
cpu0_L1D LOAD         ACCESS:    2959451 HIT:    2919794 MISS:      39657
cpu0_L1D RFO          ACCESS:          0 HIT:          0 MISS:          0
cpu0_L1D PREFETCH     ACCESS:          0 HIT:          0 MISS:          0
cpu0_L1D WRITE        ACCESS:    1212422 HIT:    1212034 MISS:        388
cpu0_L1D TRANSLATION  ACCESS:        114 HIT:          6 MISS:        108
cpu0_L1D PREFETCH REQUESTED:          0 ISSUED:          0 USEFUL:          0 USELESS:          0
cpu0_L1D AVERAGE MISS LATENCY: 16.53 cycles
cpu0_L1I TOTAL        ACCESS:     289405 HIT:     289190 MISS:        215
cpu0_L1I LOAD         ACCESS:     289405 HIT:     289190 MISS:        215
cpu0_L1I RFO          ACCESS:          0 HIT:          0 MISS:          0
cpu0_L1I PREFETCH     ACCESS:          0 HIT:          0 MISS:          0
cpu0_L1I WRITE        ACCESS:          0 HIT:          0 MISS:          0
cpu0_L1I TRANSLATION  ACCESS:          0 HIT:          0 MISS:          0
cpu0_L1I PREFETCH REQUESTED:          0 ISSUED:          0 USEFUL:          0 USELESS:          0
cpu0_L1I AVERAGE MISS LATENCY: 112.9 cycles
cpu0_L2C TOTAL        ACCESS:      10145 HIT:       4841 MISS:       5304
cpu0_L2C LOAD         ACCESS:       9700 HIT:       4648 MISS:       5052
cpu0_L2C RFO          ACCESS:        196 HIT:          2 MISS:        194
cpu0_L2C PREFETCH     ACCESS:          0 HIT:          0 MISS:          0
cpu0_L2C WRITE        ACCESS:        141 HIT:        135 MISS:          6
cpu0_L2C TRANSLATION  ACCESS:        108 HIT:         56 MISS:         52
cpu0_L2C PREFETCH REQUESTED:          0 ISSUED:          0 USEFUL:          0 USELESS:          0
cpu0_L2C AVERAGE MISS LATENCY: 121.7 cycles
cpu0_STLB TOTAL        ACCESS:       2168 HIT:       2054 MISS:        114
cpu0_STLB LOAD         ACCESS:       2168 HIT:       2054 MISS:        114
cpu0_STLB RFO          ACCESS:          0 HIT:          0 MISS:          0
cpu0_STLB PREFETCH     ACCESS:          0 HIT:          0 MISS:          0
cpu0_STLB WRITE        ACCESS:          0 HIT:          0 MISS:          0
cpu0_STLB TRANSLATION  ACCESS:          0 HIT:          0 MISS:          0
cpu0_STLB PREFETCH REQUESTED:          0 ISSUED:          0 USEFUL:          0 USELESS:          0
cpu0_STLB AVERAGE MISS LATENCY: 307.3 cycles

DRAM Statistics

Channel 0 RQ ROW_BUFFER_HIT:       3644
  ROW_BUFFER_MISS:       1395
 AVG DBUS CONGESTED CYCLE: 3.655
WQ ROW_BUFFER_HIT: Channel 0 
  ROW_BUFFER_MISS:          0
  FULL:          0
