WARNING: physical memory size is smaller than virtual memory size.
WARNING: option --warmup_instructions is deprecated. Use --warmup-instructions instead.
WARNING: option --simulation_instructions is deprecated. Use --simulation-instructions instead.

*** ChampSim Multicore Out-of-Order Simulator ***
Warmup Instructions: 5000000
Simulation Instructions: 20000000
Number of CPUs: 1
Page size: 4096

CPU 0 PAg branch predictor
Off-chip DRAM Size: 4 GiB Channels: 1 Width: 64-bit Data Race: 3200 MT/s
Warmup finished CPU 0 instructions: 5000003 cycles: 1263986 cumulative IPC: 3.956 (Simulation time: 00 hr 00 min 39 sec)
Warmup complete CPU 0 instructions: 5000003 cycles: 1263986 cumulative IPC: 3.956 (Simulation time: 00 hr 00 min 39 sec)
Heartbeat CPU 0 instructions: 10000002 cycles: 5520628 heartbeat IPC: 1.811 cumulative IPC: 1.175 (Simulation time: 00 hr 01 min 58 sec)
Heartbeat CPU 0 instructions: 20000002 cycles: 13405974 heartbeat IPC: 1.268 cumulative IPC: 1.235 (Simulation time: 00 hr 04 min 27 sec)
Simulation finished CPU 0 instructions: 20000003 cycles: 16418703 cumulative IPC: 1.218 (Simulation time: 00 hr 05 min 09 sec)
Simulation complete CPU 0 instructions: 20000003 cycles: 16418703 cumulative IPC: 1.218 (Simulation time: 00 hr 05 min 09 sec)

ChampSim completed all CPUs

=== Simulation ===
CPU 0 runs /home/igor/Documents/traces/641.leela_s-149B.champsimtrace.xz
Region of Interest Statistics

CPU 0 cumulative IPC: 1.218 instructions: 20000003 cycles: 16418703
CPU 0 Branch Prediction Accuracy: 89.04% MPKI: 19.02 Average ROB Occupancy at Mispredict: 17.15
Branch type MPKI
BRANCH_DIRECT_JUMP: 0.105
BRANCH_INDIRECT: 0.0238
BRANCH_CONDITIONAL: 18.8
BRANCH_DIRECT_CALL: 0.0141
BRANCH_INDIRECT_CALL: 0.0089
BRANCH_RETURN: 0.0417

LLC TOTAL        ACCESS:     111449 HIT:      86575 MISS:      24874
LLC LOAD         ACCESS:      40890 HIT:      23461 MISS:      17429
LLC RFO          ACCESS:      29714 HIT:      22371 MISS:       7343
LLC PREFETCH     ACCESS:          0 HIT:          0 MISS:          0
LLC WRITE        ACCESS:      40671 HIT:      40671 MISS:          0
LLC TRANSLATION  ACCESS:        174 HIT:         72 MISS:        102
LLC PREFETCH REQUESTED:          0 ISSUED:          0 USEFUL:          0 USELESS:          0
LLC AVERAGE MISS LATENCY: 180.5 cycles
cpu0_DTLB TOTAL        ACCESS:    4902373 HIT:    4880435 MISS:      21938
cpu0_DTLB LOAD         ACCESS:    4902373 HIT:    4880435 MISS:      21938
cpu0_DTLB RFO          ACCESS:          0 HIT:          0 MISS:          0
cpu0_DTLB PREFETCH     ACCESS:          0 HIT:          0 MISS:          0
cpu0_DTLB WRITE        ACCESS:          0 HIT:          0 MISS:          0
cpu0_DTLB TRANSLATION  ACCESS:          0 HIT:          0 MISS:          0
cpu0_DTLB PREFETCH REQUESTED:          0 ISSUED:          0 USEFUL:          0 USELESS:          0
cpu0_DTLB AVERAGE MISS LATENCY: 6.661 cycles
cpu0_ITLB TOTAL        ACCESS:     748163 HIT:     747379 MISS:        784
cpu0_ITLB LOAD         ACCESS:     748163 HIT:     747379 MISS:        784
cpu0_ITLB RFO          ACCESS:          0 HIT:          0 MISS:          0
cpu0_ITLB PREFETCH     ACCESS:          0 HIT:          0 MISS:          0
cpu0_ITLB WRITE        ACCESS:          0 HIT:          0 MISS:          0
cpu0_ITLB TRANSLATION  ACCESS:          0 HIT:          0 MISS:          0
cpu0_ITLB PREFETCH REQUESTED:          0 ISSUED:          0 USEFUL:          0 USELESS:          0
cpu0_ITLB AVERAGE MISS LATENCY: 17.86 cycles
cpu0_L1D TOTAL        ACCESS:    6489473 HIT:    5737828 MISS:     751645
cpu0_L1D LOAD         ACCESS:    3649533 HIT:    3342570 MISS:     306963
cpu0_L1D RFO          ACCESS:          0 HIT:          0 MISS:          0
cpu0_L1D PREFETCH     ACCESS:          0 HIT:          0 MISS:          0
cpu0_L1D WRITE        ACCESS:    2839468 HIT:    2395073 MISS:     444395
cpu0_L1D TRANSLATION  ACCESS:        472 HIT:        185 MISS:        287
cpu0_L1D PREFETCH REQUESTED:          0 ISSUED:          0 USEFUL:          0 USELESS:          0
cpu0_L1D AVERAGE MISS LATENCY: 7.882 cycles
cpu0_L1I TOTAL        ACCESS:     843457 HIT:     832851 MISS:      10606
cpu0_L1I LOAD         ACCESS:     843457 HIT:     832851 MISS:      10606
cpu0_L1I RFO          ACCESS:          0 HIT:          0 MISS:          0
cpu0_L1I PREFETCH     ACCESS:          0 HIT:          0 MISS:          0
cpu0_L1I WRITE        ACCESS:          0 HIT:          0 MISS:          0
cpu0_L1I TRANSLATION  ACCESS:          0 HIT:          0 MISS:          0
cpu0_L1I PREFETCH REQUESTED:          0 ISSUED:          0 USEFUL:          0 USELESS:          0
cpu0_L1I AVERAGE MISS LATENCY: 18.09 cycles
cpu0_L2C TOTAL        ACCESS:     246820 HIT:     176025 MISS:      70795
cpu0_L2C LOAD         ACCESS:     102378 HIT:      61488 MISS:      40890
cpu0_L2C RFO          ACCESS:      59635 HIT:      29921 MISS:      29714
cpu0_L2C PREFETCH     ACCESS:          0 HIT:          0 MISS:          0
cpu0_L2C WRITE        ACCESS:      84520 HIT:      84503 MISS:         17
cpu0_L2C TRANSLATION  ACCESS:        287 HIT:        113 MISS:        174
cpu0_L2C PREFETCH REQUESTED:          0 ISSUED:          0 USEFUL:          0 USELESS:          0
cpu0_L2C AVERAGE MISS LATENCY: 83.79 cycles
cpu0_STLB TOTAL        ACCESS:      10269 HIT:       9798 MISS:        471
cpu0_STLB LOAD         ACCESS:      10269 HIT:       9798 MISS:        471
cpu0_STLB RFO          ACCESS:          0 HIT:          0 MISS:          0
cpu0_STLB PREFETCH     ACCESS:          0 HIT:          0 MISS:          0
cpu0_STLB WRITE        ACCESS:          0 HIT:          0 MISS:          0
cpu0_STLB TRANSLATION  ACCESS:          0 HIT:          0 MISS:          0
cpu0_STLB PREFETCH REQUESTED:          0 ISSUED:          0 USEFUL:          0 USELESS:          0
cpu0_STLB AVERAGE MISS LATENCY: 264.3 cycles

DRAM Statistics

Channel 0 RQ ROW_BUFFER_HIT:      19178
  ROW_BUFFER_MISS:       5696
 AVG DBUS CONGESTED CYCLE: 3.954
WQ ROW_BUFFER_HIT: Channel 0 
  ROW_BUFFER_MISS:          1
  FULL:         31
