WARNING: physical memory size is smaller than virtual memory size.
WARNING: option --warmup_instructions is deprecated. Use --warmup-instructions instead.
WARNING: option --simulation_instructions is deprecated. Use --simulation-instructions instead.

*** ChampSim Multicore Out-of-Order Simulator ***
Warmup Instructions: 5000000
Simulation Instructions: 20000000
Number of CPUs: 1
Page size: 4096

CPU 0 PAp branch predictor
Off-chip DRAM Size: 4 GiB Channels: 1 Width: 64-bit Data Race: 3200 MT/s
Warmup finished CPU 0 instructions: 5000001 cycles: 1250066 cumulative IPC: 4 (Simulation time: 00 hr 00 min 45 sec)
Warmup complete CPU 0 instructions: 5000001 cycles: 1250066 cumulative IPC: 4 (Simulation time: 00 hr 00 min 45 sec)
Heartbeat CPU 0 instructions: 10000001 cycles: 5125668 heartbeat IPC: 1.951 cumulative IPC: 1.29 (Simulation time: 00 hr 02 min 06 sec)
Heartbeat CPU 0 instructions: 20000003 cycles: 12846818 heartbeat IPC: 1.295 cumulative IPC: 1.293 (Simulation time: 00 hr 04 min 36 sec)
Simulation finished CPU 0 instructions: 20000000 cycles: 15331136 cumulative IPC: 1.305 (Simulation time: 00 hr 05 min 57 sec)
Simulation complete CPU 0 instructions: 20000000 cycles: 15331136 cumulative IPC: 1.305 (Simulation time: 00 hr 05 min 57 sec)

ChampSim completed all CPUs

=== Simulation ===
CPU 0 runs /home/igor/Documents/traces/631.deepsjeng_s-928B.champsimtrace.xz
Region of Interest Statistics

CPU 0 cumulative IPC: 1.305 instructions: 20000000 cycles: 15331136
CPU 0 Branch Prediction Accuracy: 90.38% MPKI: 14.45 Average ROB Occupancy at Mispredict: 28.64
Branch type MPKI
BRANCH_DIRECT_JUMP: 0.0229
BRANCH_INDIRECT: 0.00865
BRANCH_CONDITIONAL: 14
BRANCH_DIRECT_CALL: 0.023
BRANCH_INDIRECT_CALL: 0
BRANCH_RETURN: 0.403

LLC TOTAL        ACCESS:      14274 HIT:       3281 MISS:      10993
LLC LOAD         ACCESS:       5871 HIT:        255 MISS:       5616
LLC RFO          ACCESS:        587 HIT:        140 MISS:        447
LLC PREFETCH     ACCESS:          0 HIT:          0 MISS:          0
LLC WRITE        ACCESS:       2807 HIT:       2807 MISS:          0
LLC TRANSLATION  ACCESS:       5009 HIT:         79 MISS:       4930
LLC PREFETCH REQUESTED:          0 ISSUED:          0 USEFUL:          0 USELESS:          0
LLC AVERAGE MISS LATENCY: 123 cycles
cpu0_DTLB TOTAL        ACCESS:    4730538 HIT:    4711596 MISS:      18942
cpu0_DTLB LOAD         ACCESS:    4730538 HIT:    4711596 MISS:      18942
cpu0_DTLB RFO          ACCESS:          0 HIT:          0 MISS:          0
cpu0_DTLB PREFETCH     ACCESS:          0 HIT:          0 MISS:          0
cpu0_DTLB WRITE        ACCESS:          0 HIT:          0 MISS:          0
cpu0_DTLB TRANSLATION  ACCESS:          0 HIT:          0 MISS:          0
cpu0_DTLB PREFETCH REQUESTED:          0 ISSUED:          0 USEFUL:          0 USELESS:          0
cpu0_DTLB AVERAGE MISS LATENCY: 114.5 cycles
cpu0_ITLB TOTAL        ACCESS:    1371906 HIT:    1371906 MISS:          0
cpu0_ITLB LOAD         ACCESS:    1371906 HIT:    1371906 MISS:          0
cpu0_ITLB RFO          ACCESS:          0 HIT:          0 MISS:          0
cpu0_ITLB PREFETCH     ACCESS:          0 HIT:          0 MISS:          0
cpu0_ITLB WRITE        ACCESS:          0 HIT:          0 MISS:          0
cpu0_ITLB TRANSLATION  ACCESS:          0 HIT:          0 MISS:          0
cpu0_ITLB PREFETCH REQUESTED:          0 ISSUED:          0 USEFUL:          0 USELESS:          0
cpu0_ITLB AVERAGE MISS LATENCY: -nan cycles
cpu0_L1D TOTAL        ACCESS:    6354794 HIT:    6298853 MISS:      55941
cpu0_L1D LOAD         ACCESS:    3869776 HIT:    3839855 MISS:      29921
cpu0_L1D RFO          ACCESS:          0 HIT:          0 MISS:          0
cpu0_L1D PREFETCH     ACCESS:          0 HIT:          0 MISS:          0
cpu0_L1D WRITE        ACCESS:    2477970 HIT:    2458649 MISS:      19321
cpu0_L1D TRANSLATION  ACCESS:       7048 HIT:        349 MISS:       6699
cpu0_L1D PREFETCH REQUESTED:          0 ISSUED:          0 USEFUL:          0 USELESS:          0
cpu0_L1D AVERAGE MISS LATENCY: 31.67 cycles
cpu0_L1I TOTAL        ACCESS:    1633044 HIT:    1610493 MISS:      22551
cpu0_L1I LOAD         ACCESS:    1633044 HIT:    1610493 MISS:      22551
cpu0_L1I RFO          ACCESS:          0 HIT:          0 MISS:          0
cpu0_L1I PREFETCH     ACCESS:          0 HIT:          0 MISS:          0
cpu0_L1I WRITE        ACCESS:          0 HIT:          0 MISS:          0
cpu0_L1I TRANSLATION  ACCESS:          0 HIT:          0 MISS:          0
cpu0_L1I PREFETCH REQUESTED:          0 ISSUED:          0 USEFUL:          0 USELESS:          0
cpu0_L1I AVERAGE MISS LATENCY: 7.013 cycles
cpu0_L2C TOTAL        ACCESS:      52640 HIT:      41159 MISS:      11481
cpu0_L2C LOAD         ACCESS:      28651 HIT:      22780 MISS:       5871
cpu0_L2C RFO          ACCESS:       6118 HIT:       5531 MISS:        587
cpu0_L2C PREFETCH     ACCESS:          0 HIT:          0 MISS:          0
cpu0_L2C WRITE        ACCESS:      11199 HIT:      11185 MISS:         14
cpu0_L2C TRANSLATION  ACCESS:       6672 HIT:       1663 MISS:       5009
cpu0_L2C PREFETCH REQUESTED:          0 ISSUED:          0 USEFUL:          0 USELESS:          0
cpu0_L2C AVERAGE MISS LATENCY: 138.7 cycles
cpu0_STLB TOTAL        ACCESS:       5086 HIT:       1598 MISS:       3488
cpu0_STLB LOAD         ACCESS:       5086 HIT:       1598 MISS:       3488
cpu0_STLB RFO          ACCESS:          0 HIT:          0 MISS:          0
cpu0_STLB PREFETCH     ACCESS:          0 HIT:          0 MISS:          0
cpu0_STLB WRITE        ACCESS:          0 HIT:          0 MISS:          0
cpu0_STLB TRANSLATION  ACCESS:          0 HIT:          0 MISS:          0
cpu0_STLB PREFETCH REQUESTED:          0 ISSUED:          0 USEFUL:          0 USELESS:          0
cpu0_STLB AVERAGE MISS LATENCY: 647.8 cycles

DRAM Statistics

Channel 0 RQ ROW_BUFFER_HIT:       4682
  ROW_BUFFER_MISS:       6311
 AVG DBUS CONGESTED CYCLE: 3.964
WQ ROW_BUFFER_HIT: Channel 0 
  ROW_BUFFER_MISS:          0
  FULL:          5
