WARNING: physical memory size is smaller than virtual memory size.
WARNING: option --warmup_instructions is deprecated. Use --warmup-instructions instead.
WARNING: option --simulation_instructions is deprecated. Use --simulation-instructions instead.

*** ChampSim Multicore Out-of-Order Simulator ***
Warmup Instructions: 5000000
Simulation Instructions: 20000000
Number of CPUs: 1
Page size: 4096

CPU 0 PAp branch predictor
Off-chip DRAM Size: 4 GiB Channels: 1 Width: 64-bit Data Race: 3200 MT/s
Warmup finished CPU 0 instructions: 5000001 cycles: 1250044 cumulative IPC: 4 (Simulation time: 00 hr 00 min 18 sec)
Warmup complete CPU 0 instructions: 5000001 cycles: 1250044 cumulative IPC: 4 (Simulation time: 00 hr 00 min 18 sec)
Heartbeat CPU 0 instructions: 10000001 cycles: 2559236 heartbeat IPC: 3.907 cumulative IPC: 3.819 (Simulation time: 00 hr 00 min 38 sec)
Heartbeat CPU 0 instructions: 20000003 cycles: 5178598 heartbeat IPC: 3.818 cumulative IPC: 3.818 (Simulation time: 00 hr 01 min 15 sec)
Simulation finished CPU 0 instructions: 20000003 cycles: 5237301 cumulative IPC: 3.819 (Simulation time: 00 hr 01 min 34 sec)
Simulation complete CPU 0 instructions: 20000003 cycles: 5237301 cumulative IPC: 3.819 (Simulation time: 00 hr 01 min 34 sec)

ChampSim completed all CPUs

=== Simulation ===
CPU 0 runs /home/igor/Documents/traces/638.imagick_s-10316B.champsimtrace.xz
Region of Interest Statistics

CPU 0 cumulative IPC: 3.819 instructions: 20000003 cycles: 5237301
CPU 0 Branch Prediction Accuracy: 99.7% MPKI: 0.3155 Average ROB Occupancy at Mispredict: 345.5
Branch type MPKI
BRANCH_DIRECT_JUMP: 5e-05
BRANCH_INDIRECT: 0
BRANCH_CONDITIONAL: 0.315
BRANCH_DIRECT_CALL: 0
BRANCH_INDIRECT_CALL: 0
BRANCH_RETURN: 0

LLC TOTAL        ACCESS:        782 HIT:          0 MISS:        782
LLC LOAD         ACCESS:        775 HIT:          0 MISS:        775
LLC RFO          ACCESS:          7 HIT:          0 MISS:          7
LLC PREFETCH     ACCESS:          0 HIT:          0 MISS:          0
LLC WRITE        ACCESS:          0 HIT:          0 MISS:          0
LLC TRANSLATION  ACCESS:          0 HIT:          0 MISS:          0
LLC PREFETCH REQUESTED:          0 ISSUED:          0 USEFUL:          0 USELESS:          0
LLC AVERAGE MISS LATENCY: 161.9 cycles
cpu0_DTLB TOTAL        ACCESS:    3120150 HIT:    3072393 MISS:      47757
cpu0_DTLB LOAD         ACCESS:    3120150 HIT:    3072393 MISS:      47757
cpu0_DTLB RFO          ACCESS:          0 HIT:          0 MISS:          0
cpu0_DTLB PREFETCH     ACCESS:          0 HIT:          0 MISS:          0
cpu0_DTLB WRITE        ACCESS:          0 HIT:          0 MISS:          0
cpu0_DTLB TRANSLATION  ACCESS:          0 HIT:          0 MISS:          0
cpu0_DTLB PREFETCH REQUESTED:          0 ISSUED:          0 USEFUL:          0 USELESS:          0
cpu0_DTLB AVERAGE MISS LATENCY: 0.1256 cycles
cpu0_ITLB TOTAL        ACCESS:          0 HIT:          0 MISS:          0
cpu0_ITLB LOAD         ACCESS:          0 HIT:          0 MISS:          0
cpu0_ITLB RFO          ACCESS:          0 HIT:          0 MISS:          0
cpu0_ITLB PREFETCH     ACCESS:          0 HIT:          0 MISS:          0
cpu0_ITLB WRITE        ACCESS:          0 HIT:          0 MISS:          0
cpu0_ITLB TRANSLATION  ACCESS:          0 HIT:          0 MISS:          0
cpu0_ITLB PREFETCH REQUESTED:          0 ISSUED:          0 USEFUL:          0 USELESS:          0
cpu0_ITLB AVERAGE MISS LATENCY: -nan cycles
cpu0_L1D TOTAL        ACCESS:    3432299 HIT:    2546673 MISS:     885626
cpu0_L1D LOAD         ACCESS:    3431297 HIT:    2545920 MISS:     885377
cpu0_L1D RFO          ACCESS:          0 HIT:          0 MISS:          0
cpu0_L1D PREFETCH     ACCESS:          0 HIT:          0 MISS:          0
cpu0_L1D WRITE        ACCESS:        992 HIT:        753 MISS:        239
cpu0_L1D TRANSLATION  ACCESS:         10 HIT:          0 MISS:         10
cpu0_L1D PREFETCH REQUESTED:          0 ISSUED:          0 USEFUL:          0 USELESS:          0
cpu0_L1D AVERAGE MISS LATENCY: 0.5822 cycles
cpu0_L1I TOTAL        ACCESS:          0 HIT:          0 MISS:          0
cpu0_L1I LOAD         ACCESS:          0 HIT:          0 MISS:          0
cpu0_L1I RFO          ACCESS:          0 HIT:          0 MISS:          0
cpu0_L1I PREFETCH     ACCESS:          0 HIT:          0 MISS:          0
cpu0_L1I WRITE        ACCESS:          0 HIT:          0 MISS:          0
cpu0_L1I TRANSLATION  ACCESS:          0 HIT:          0 MISS:          0
cpu0_L1I PREFETCH REQUESTED:          0 ISSUED:          0 USEFUL:          0 USELESS:          0
cpu0_L1I AVERAGE MISS LATENCY: -nan cycles
cpu0_L2C TOTAL        ACCESS:     178293 HIT:     177511 MISS:        782
cpu0_L2C LOAD         ACCESS:     177882 HIT:     177107 MISS:        775
cpu0_L2C RFO          ACCESS:        119 HIT:        112 MISS:          7
cpu0_L2C PREFETCH     ACCESS:          0 HIT:          0 MISS:          0
cpu0_L2C WRITE        ACCESS:        282 HIT:        282 MISS:          0
cpu0_L2C TRANSLATION  ACCESS:         10 HIT:         10 MISS:          0
cpu0_L2C PREFETCH REQUESTED:          0 ISSUED:          0 USEFUL:          0 USELESS:          0
cpu0_L2C AVERAGE MISS LATENCY: 182.9 cycles
cpu0_STLB TOTAL        ACCESS:       9301 HIT:       9291 MISS:         10
cpu0_STLB LOAD         ACCESS:       9301 HIT:       9291 MISS:         10
cpu0_STLB RFO          ACCESS:          0 HIT:          0 MISS:          0
cpu0_STLB PREFETCH     ACCESS:          0 HIT:          0 MISS:          0
cpu0_STLB WRITE        ACCESS:          0 HIT:          0 MISS:          0
cpu0_STLB TRANSLATION  ACCESS:          0 HIT:          0 MISS:          0
cpu0_STLB PREFETCH REQUESTED:          0 ISSUED:          0 USEFUL:          0 USELESS:          0
cpu0_STLB AVERAGE MISS LATENCY: 217 cycles

DRAM Statistics

Channel 0 RQ ROW_BUFFER_HIT:         20
  ROW_BUFFER_MISS:        762
 AVG DBUS CONGESTED CYCLE: -
WQ ROW_BUFFER_HIT: Channel 0 
  ROW_BUFFER_MISS:          0
  FULL:          0
