WARNING: physical memory size is smaller than virtual memory size.
WARNING: option --warmup_instructions is deprecated. Use --warmup-instructions instead.
WARNING: option --simulation_instructions is deprecated. Use --simulation-instructions instead.

*** ChampSim Multicore Out-of-Order Simulator ***
Warmup Instructions: 5000000
Simulation Instructions: 20000000
Number of CPUs: 1
Page size: 4096

Off-chip DRAM Size: 4 GiB Channels: 1 Width: 64-bit Data Race: 3200 MT/s
Warmup finished CPU 0 instructions: 5000000 cycles: 1250047 cumulative IPC: 4 (Simulation time: 00 hr 00 min 33 sec)
Warmup complete CPU 0 instructions: 5000000 cycles: 1250047 cumulative IPC: 4 (Simulation time: 00 hr 00 min 33 sec)
Heartbeat CPU 0 instructions: 10000004 cycles: 8432241 heartbeat IPC: 1.186 cumulative IPC: 0.6962 (Simulation time: 00 hr 02 min 58 sec)
Heartbeat CPU 0 instructions: 20000000 cycles: 22748689 heartbeat IPC: 0.6985 cumulative IPC: 0.6977 (Simulation time: 00 hr 08 min 02 sec)
Simulation finished CPU 0 instructions: 20000002 cycles: 28429212 cumulative IPC: 0.7035 (Simulation time: 00 hr 09 min 52 sec)
Simulation complete CPU 0 instructions: 20000002 cycles: 28429212 cumulative IPC: 0.7035 (Simulation time: 00 hr 09 min 52 sec)

ChampSim completed all CPUs

=== Simulation ===
CPU 0 runs /home/igor/Documents/traces/603.bwaves_s-2931B.champsimtrace.xz
Region of Interest Statistics

CPU 0 cumulative IPC: 0.7035 instructions: 20000002 cycles: 28429212
CPU 0 Branch Prediction Accuracy: 80.62% MPKI: 1.636 Average ROB Occupancy at Mispredict: 334.9
Branch type MPKI
BRANCH_DIRECT_JUMP: 0
BRANCH_INDIRECT: 0
BRANCH_CONDITIONAL: 1.64
BRANCH_DIRECT_CALL: 0
BRANCH_INDIRECT_CALL: 0
BRANCH_RETURN: 0

LLC TOTAL        ACCESS:     419552 HIT:     146215 MISS:     273337
LLC LOAD         ACCESS:     181224 HIT:      27096 MISS:     154128
LLC RFO          ACCESS:     119077 HIT:          0 MISS:     119077
LLC PREFETCH     ACCESS:          0 HIT:          0 MISS:          0
LLC WRITE        ACCESS:     119124 HIT:     119119 MISS:          5
LLC TRANSLATION  ACCESS:        127 HIT:          0 MISS:        127
LLC PREFETCH REQUESTED:          0 ISSUED:          0 USEFUL:          0 USELESS:          0
LLC AVERAGE MISS LATENCY: 515.4 cycles
cpu0_DTLB TOTAL        ACCESS:    4587296 HIT:    4558285 MISS:      29011
cpu0_DTLB LOAD         ACCESS:    4587296 HIT:    4558285 MISS:      29011
cpu0_DTLB RFO          ACCESS:          0 HIT:          0 MISS:          0
cpu0_DTLB PREFETCH     ACCESS:          0 HIT:          0 MISS:          0
cpu0_DTLB WRITE        ACCESS:          0 HIT:          0 MISS:          0
cpu0_DTLB TRANSLATION  ACCESS:          0 HIT:          0 MISS:          0
cpu0_DTLB PREFETCH REQUESTED:          0 ISSUED:          0 USEFUL:          0 USELESS:          0
cpu0_DTLB AVERAGE MISS LATENCY: 29.92 cycles
cpu0_ITLB TOTAL        ACCESS:          8 HIT:          8 MISS:          0
cpu0_ITLB LOAD         ACCESS:          8 HIT:          8 MISS:          0
cpu0_ITLB RFO          ACCESS:          0 HIT:          0 MISS:          0
cpu0_ITLB PREFETCH     ACCESS:          0 HIT:          0 MISS:          0
cpu0_ITLB WRITE        ACCESS:          0 HIT:          0 MISS:          0
cpu0_ITLB TRANSLATION  ACCESS:          0 HIT:          0 MISS:          0
cpu0_ITLB PREFETCH REQUESTED:          0 ISSUED:          0 USEFUL:          0 USELESS:          0
cpu0_ITLB AVERAGE MISS LATENCY: -nan cycles
cpu0_L1D TOTAL        ACCESS:    6373232 HIT:    5493700 MISS:     879532
cpu0_L1D LOAD         ACCESS:    2710843 HIT:    2274400 MISS:     436443
cpu0_L1D RFO          ACCESS:          0 HIT:          0 MISS:          0
cpu0_L1D PREFETCH     ACCESS:          0 HIT:          0 MISS:          0
cpu0_L1D WRITE        ACCESS:    3658101 HIT:    3219286 MISS:     438815
cpu0_L1D TRANSLATION  ACCESS:       4288 HIT:         14 MISS:       4274
cpu0_L1D PREFETCH REQUESTED:          0 ISSUED:          0 USEFUL:          0 USELESS:          0
cpu0_L1D AVERAGE MISS LATENCY: 96.28 cycles
cpu0_L1I TOTAL        ACCESS:         10 HIT:          2 MISS:          8
cpu0_L1I LOAD         ACCESS:         10 HIT:          2 MISS:          8
cpu0_L1I RFO          ACCESS:          0 HIT:          0 MISS:          0
cpu0_L1I PREFETCH     ACCESS:          0 HIT:          0 MISS:          0
cpu0_L1I WRITE        ACCESS:          0 HIT:          0 MISS:          0
cpu0_L1I TRANSLATION  ACCESS:          0 HIT:          0 MISS:          0
cpu0_L1I PREFETCH REQUESTED:          0 ISSUED:          0 USEFUL:          0 USELESS:          0
cpu0_L1I AVERAGE MISS LATENCY: 234 cycles
cpu0_L2C TOTAL        ACCESS:     465665 HIT:     165233 MISS:     300432
cpu0_L2C LOAD         ACCESS:     207527 HIT:      26303 MISS:     181224
cpu0_L2C RFO          ACCESS:     126237 HIT:       7160 MISS:     119077
cpu0_L2C PREFETCH     ACCESS:          0 HIT:          0 MISS:          0
cpu0_L2C WRITE        ACCESS:     127627 HIT:     127623 MISS:          4
cpu0_L2C TRANSLATION  ACCESS:       4274 HIT:       4147 MISS:        127
cpu0_L2C PREFETCH REQUESTED:          0 ISSUED:          0 USEFUL:          0 USELESS:          0
cpu0_L2C AVERAGE MISS LATENCY: 489.8 cycles
cpu0_STLB TOTAL        ACCESS:      23071 HIT:      18795 MISS:       4276
cpu0_STLB LOAD         ACCESS:      23071 HIT:      18795 MISS:       4276
cpu0_STLB RFO          ACCESS:          0 HIT:          0 MISS:          0
cpu0_STLB PREFETCH     ACCESS:          0 HIT:          0 MISS:          0
cpu0_STLB WRITE        ACCESS:          0 HIT:          0 MISS:          0
cpu0_STLB TRANSLATION  ACCESS:          0 HIT:          0 MISS:          0
cpu0_STLB PREFETCH REQUESTED:          0 ISSUED:          0 USEFUL:          0 USELESS:          0
cpu0_STLB AVERAGE MISS LATENCY: 236.4 cycles

DRAM Statistics

Channel 0 RQ ROW_BUFFER_HIT:     187927
  ROW_BUFFER_MISS:      85399
 AVG DBUS CONGESTED CYCLE: 3.969
WQ ROW_BUFFER_HIT: Channel 0 
  ROW_BUFFER_MISS:      63932
  FULL:      55150
