WARNING: physical memory size is smaller than virtual memory size.
WARNING: option --warmup_instructions is deprecated. Use --warmup-instructions instead.
WARNING: option --simulation_instructions is deprecated. Use --simulation-instructions instead.

*** ChampSim Multicore Out-of-Order Simulator ***
Warmup Instructions: 5000000
Simulation Instructions: 20000000
Number of CPUs: 1
Page size: 4096

Off-chip DRAM Size: 4 GiB Channels: 1 Width: 64-bit Data Race: 3200 MT/s
Warmup finished CPU 0 instructions: 5000004 cycles: 1271292 cumulative IPC: 3.933 (Simulation time: 00 hr 00 min 38 sec)
Warmup complete CPU 0 instructions: 5000004 cycles: 1271292 cumulative IPC: 3.933 (Simulation time: 00 hr 00 min 38 sec)
Heartbeat CPU 0 instructions: 10000002 cycles: 3450145 heartbeat IPC: 2.898 cumulative IPC: 2.295 (Simulation time: 00 hr 01 min 39 sec)
Heartbeat CPU 0 instructions: 20000000 cycles: 7868497 heartbeat IPC: 2.263 cumulative IPC: 2.274 (Simulation time: 00 hr 03 min 46 sec)
Simulation finished CPU 0 instructions: 20000003 cycles: 8755811 cumulative IPC: 2.284 (Simulation time: 00 hr 04 min 47 sec)
Simulation complete CPU 0 instructions: 20000003 cycles: 8755811 cumulative IPC: 2.284 (Simulation time: 00 hr 04 min 47 sec)

ChampSim completed all CPUs

=== Simulation ===
CPU 0 runs /home/igor/Documents/traces/607.cactuBSSN_s-2421B.champsimtrace.xz
Region of Interest Statistics

CPU 0 cumulative IPC: 2.284 instructions: 20000003 cycles: 8755811
CPU 0 Branch Prediction Accuracy: 91.53% MPKI: 0.7624 Average ROB Occupancy at Mispredict: 199.5
Branch type MPKI
BRANCH_DIRECT_JUMP: 0.00165
BRANCH_INDIRECT: 0.0001
BRANCH_CONDITIONAL: 0.394
BRANCH_DIRECT_CALL: 0.00195
BRANCH_INDIRECT_CALL: 0
BRANCH_RETURN: 0.365

LLC TOTAL        ACCESS:     103025 HIT:      49759 MISS:      53266
LLC LOAD         ACCESS:      78365 HIT:      37562 MISS:      40803
LLC RFO          ACCESS:      11790 HIT:          0 MISS:      11790
LLC PREFETCH     ACCESS:          0 HIT:          0 MISS:          0
LLC WRITE        ACCESS:      11840 HIT:      11839 MISS:          1
LLC TRANSLATION  ACCESS:       1030 HIT:        358 MISS:        672
LLC PREFETCH REQUESTED:          0 ISSUED:          0 USEFUL:          0 USELESS:          0
LLC AVERAGE MISS LATENCY: 644.8 cycles
cpu0_DTLB TOTAL        ACCESS:    4943627 HIT:    4035258 MISS:     908369
cpu0_DTLB LOAD         ACCESS:    4943627 HIT:    4035258 MISS:     908369
cpu0_DTLB RFO          ACCESS:          0 HIT:          0 MISS:          0
cpu0_DTLB PREFETCH     ACCESS:          0 HIT:          0 MISS:          0
cpu0_DTLB WRITE        ACCESS:          0 HIT:          0 MISS:          0
cpu0_DTLB TRANSLATION  ACCESS:          0 HIT:          0 MISS:          0
cpu0_DTLB PREFETCH REQUESTED:          0 ISSUED:          0 USEFUL:          0 USELESS:          0
cpu0_DTLB AVERAGE MISS LATENCY: 6.856 cycles
cpu0_ITLB TOTAL        ACCESS:    2326426 HIT:    2326411 MISS:         15
cpu0_ITLB LOAD         ACCESS:    2326426 HIT:    2326411 MISS:         15
cpu0_ITLB RFO          ACCESS:          0 HIT:          0 MISS:          0
cpu0_ITLB PREFETCH     ACCESS:          0 HIT:          0 MISS:          0
cpu0_ITLB WRITE        ACCESS:          0 HIT:          0 MISS:          0
cpu0_ITLB TRANSLATION  ACCESS:          0 HIT:          0 MISS:          0
cpu0_ITLB PREFETCH REQUESTED:          0 ISSUED:          0 USEFUL:          0 USELESS:          0
cpu0_ITLB AVERAGE MISS LATENCY: 317.4 cycles
cpu0_L1D TOTAL        ACCESS:    6759013 HIT:    5204154 MISS:    1554859
cpu0_L1D LOAD         ACCESS:    5147094 HIT:    3742861 MISS:    1404233
cpu0_L1D RFO          ACCESS:          0 HIT:          0 MISS:          0
cpu0_L1D PREFETCH     ACCESS:          0 HIT:          0 MISS:          0
cpu0_L1D WRITE        ACCESS:    1610608 HIT:    1461269 MISS:     149339
cpu0_L1D TRANSLATION  ACCESS:       1311 HIT:         24 MISS:       1287
cpu0_L1D PREFETCH REQUESTED:          0 ISSUED:          0 USEFUL:          0 USELESS:          0
cpu0_L1D AVERAGE MISS LATENCY: 32.99 cycles
cpu0_L1I TOTAL        ACCESS:    3296209 HIT:    2432643 MISS:     863566
cpu0_L1I LOAD         ACCESS:    3296209 HIT:    2432643 MISS:     863566
cpu0_L1I RFO          ACCESS:          0 HIT:          0 MISS:          0
cpu0_L1I PREFETCH     ACCESS:          0 HIT:          0 MISS:          0
cpu0_L1I WRITE        ACCESS:          0 HIT:          0 MISS:          0
cpu0_L1I TRANSLATION  ACCESS:          0 HIT:          0 MISS:          0
cpu0_L1I PREFETCH REQUESTED:          0 ISSUED:          0 USEFUL:          0 USELESS:          0
cpu0_L1I AVERAGE MISS LATENCY: 5.987 cycles
cpu0_L2C TOTAL        ACCESS:    2104885 HIT:    2013694 MISS:      91191
cpu0_L2C LOAD         ACCESS:    1844621 HIT:    1766256 MISS:      78365
cpu0_L2C RFO          ACCESS:     123534 HIT:     111744 MISS:      11790
cpu0_L2C PREFETCH     ACCESS:          0 HIT:          0 MISS:          0
cpu0_L2C WRITE        ACCESS:     135443 HIT:     135437 MISS:          6
cpu0_L2C TRANSLATION  ACCESS:       1287 HIT:        257 MISS:       1030
cpu0_L2C PREFETCH REQUESTED:          0 ISSUED:          0 USEFUL:          0 USELESS:          0
cpu0_L2C AVERAGE MISS LATENCY: 397.2 cycles
cpu0_STLB TOTAL        ACCESS:     775775 HIT:     774923 MISS:        852
cpu0_STLB LOAD         ACCESS:     775775 HIT:     774923 MISS:        852
cpu0_STLB RFO          ACCESS:          0 HIT:          0 MISS:          0
cpu0_STLB PREFETCH     ACCESS:          0 HIT:          0 MISS:          0
cpu0_STLB WRITE        ACCESS:          0 HIT:          0 MISS:          0
cpu0_STLB TRANSLATION  ACCESS:          0 HIT:          0 MISS:          0
cpu0_STLB PREFETCH REQUESTED:          0 ISSUED:          0 USEFUL:          0 USELESS:          0
cpu0_STLB AVERAGE MISS LATENCY: 685.7 cycles

DRAM Statistics

Channel 0 RQ ROW_BUFFER_HIT:      32367
  ROW_BUFFER_MISS:      20898
 AVG DBUS CONGESTED CYCLE: 3.954
WQ ROW_BUFFER_HIT: Channel 0 
  ROW_BUFFER_MISS:       1189
  FULL:       6823
