WARNING: physical memory size is smaller than virtual memory size.
WARNING: option --warmup_instructions is deprecated. Use --warmup-instructions instead.
WARNING: option --simulation_instructions is deprecated. Use --simulation-instructions instead.

*** ChampSim Multicore Out-of-Order Simulator ***
Warmup Instructions: 5000000
Simulation Instructions: 20000000
Number of CPUs: 1
Page size: 4096

Off-chip DRAM Size: 4 GiB Channels: 1 Width: 64-bit Data Race: 3200 MT/s
Warmup finished CPU 0 instructions: 5000003 cycles: 1251363 cumulative IPC: 3.996 (Simulation time: 00 hr 00 min 37 sec)
Warmup complete CPU 0 instructions: 5000003 cycles: 1251363 cumulative IPC: 3.996 (Simulation time: 00 hr 00 min 37 sec)
Heartbeat CPU 0 instructions: 10000000 cycles: 12716372 heartbeat IPC: 0.7864 cumulative IPC: 0.4361 (Simulation time: 00 hr 03 min 12 sec)
Heartbeat CPU 0 instructions: 20000002 cycles: 36172799 heartbeat IPC: 0.4263 cumulative IPC: 0.4295 (Simulation time: 00 hr 09 min 06 sec)
Simulation finished CPU 0 instructions: 20000001 cycles: 46633265 cumulative IPC: 0.4289 (Simulation time: 00 hr 12 min 09 sec)
Simulation complete CPU 0 instructions: 20000001 cycles: 46633265 cumulative IPC: 0.4289 (Simulation time: 00 hr 12 min 09 sec)

ChampSim completed all CPUs

=== Simulation ===
CPU 0 runs /home/igor/Documents/traces/620.omnetpp_s-141B.champsimtrace.xz
Region of Interest Statistics

CPU 0 cumulative IPC: 0.4289 instructions: 20000001 cycles: 46633265
CPU 0 Branch Prediction Accuracy: 91.58% MPKI: 17.77 Average ROB Occupancy at Mispredict: 41.47
Branch type MPKI
BRANCH_DIRECT_JUMP: 0.846
BRANCH_INDIRECT: 0.364
BRANCH_CONDITIONAL: 15.3
BRANCH_DIRECT_CALL: 0.0006
BRANCH_INDIRECT_CALL: 0.862
BRANCH_RETURN: 0.437

LLC TOTAL        ACCESS:     519099 HIT:     216513 MISS:     302586
LLC LOAD         ACCESS:     250530 HIT:      54183 MISS:     196347
LLC RFO          ACCESS:      34937 HIT:      12162 MISS:      22775
LLC PREFETCH     ACCESS:          0 HIT:          0 MISS:          0
LLC WRITE        ACCESS:     141611 HIT:     140991 MISS:        620
LLC TRANSLATION  ACCESS:      92021 HIT:       9177 MISS:      82844
LLC PREFETCH REQUESTED:          0 ISSUED:          0 USEFUL:          0 USELESS:          0
LLC AVERAGE MISS LATENCY: 194.2 cycles
cpu0_DTLB TOTAL        ACCESS:    6474644 HIT:    5954361 MISS:     520283
cpu0_DTLB LOAD         ACCESS:    6474644 HIT:    5954361 MISS:     520283
cpu0_DTLB RFO          ACCESS:          0 HIT:          0 MISS:          0
cpu0_DTLB PREFETCH     ACCESS:          0 HIT:          0 MISS:          0
cpu0_DTLB WRITE        ACCESS:          0 HIT:          0 MISS:          0
cpu0_DTLB TRANSLATION  ACCESS:          0 HIT:          0 MISS:          0
cpu0_DTLB PREFETCH REQUESTED:          0 ISSUED:          0 USEFUL:          0 USELESS:          0
cpu0_DTLB AVERAGE MISS LATENCY: 60.77 cycles
cpu0_ITLB TOTAL        ACCESS:    1568471 HIT:    1522762 MISS:      45709
cpu0_ITLB LOAD         ACCESS:    1568471 HIT:    1522762 MISS:      45709
cpu0_ITLB RFO          ACCESS:          0 HIT:          0 MISS:          0
cpu0_ITLB PREFETCH     ACCESS:          0 HIT:          0 MISS:          0
cpu0_ITLB WRITE        ACCESS:          0 HIT:          0 MISS:          0
cpu0_ITLB TRANSLATION  ACCESS:          0 HIT:          0 MISS:          0
cpu0_ITLB PREFETCH REQUESTED:          0 ISSUED:          0 USEFUL:          0 USELESS:          0
cpu0_ITLB AVERAGE MISS LATENCY: 4.231 cycles
cpu0_L1D TOTAL        ACCESS:    8514868 HIT:    7722406 MISS:     792462
cpu0_L1D LOAD         ACCESS:    4707110 HIT:    4182895 MISS:     524215
cpu0_L1D RFO          ACCESS:          0 HIT:          0 MISS:          0
cpu0_L1D PREFETCH     ACCESS:          0 HIT:          0 MISS:          0
cpu0_L1D WRITE        ACCESS:    3670534 HIT:    3515580 MISS:     154954
cpu0_L1D TRANSLATION  ACCESS:     137224 HIT:      23931 MISS:     113293
cpu0_L1D PREFETCH REQUESTED:          0 ISSUED:          0 USEFUL:          0 USELESS:          0
cpu0_L1D AVERAGE MISS LATENCY: 88.12 cycles
cpu0_L1I TOTAL        ACCESS:    1717717 HIT:    1702782 MISS:      14935
cpu0_L1I LOAD         ACCESS:    1717717 HIT:    1702782 MISS:      14935
cpu0_L1I RFO          ACCESS:          0 HIT:          0 MISS:          0
cpu0_L1I PREFETCH     ACCESS:          0 HIT:          0 MISS:          0
cpu0_L1I WRITE        ACCESS:          0 HIT:          0 MISS:          0
cpu0_L1I TRANSLATION  ACCESS:          0 HIT:          0 MISS:          0
cpu0_L1I PREFETCH REQUESTED:          0 ISSUED:          0 USEFUL:          0 USELESS:          0
cpu0_L1I AVERAGE MISS LATENCY: 15.43 cycles
cpu0_L2C TOTAL        ACCESS:     700131 HIT:     322256 MISS:     377875
cpu0_L2C LOAD         ACCESS:     353190 HIT:     102660 MISS:     250530
cpu0_L2C RFO          ACCESS:      44843 HIT:       9906 MISS:      34937
cpu0_L2C PREFETCH     ACCESS:          0 HIT:          0 MISS:          0
cpu0_L2C WRITE        ACCESS:     188979 HIT:     188592 MISS:        387
cpu0_L2C TRANSLATION  ACCESS:     113119 HIT:      21098 MISS:      92021
cpu0_L2C PREFETCH REQUESTED:          0 ISSUED:          0 USEFUL:          0 USELESS:          0
cpu0_L2C AVERAGE MISS LATENCY: 176.3 cycles
cpu0_STLB TOTAL        ACCESS:     440376 HIT:     343462 MISS:      96914
cpu0_STLB LOAD         ACCESS:     440376 HIT:     343462 MISS:      96914
cpu0_STLB RFO          ACCESS:          0 HIT:          0 MISS:          0
cpu0_STLB PREFETCH     ACCESS:          0 HIT:          0 MISS:          0
cpu0_STLB WRITE        ACCESS:          0 HIT:          0 MISS:          0
cpu0_STLB TRANSLATION  ACCESS:          0 HIT:          0 MISS:          0
cpu0_STLB PREFETCH REQUESTED:          0 ISSUED:          0 USEFUL:          0 USELESS:          0
cpu0_STLB AVERAGE MISS LATENCY: 300.2 cycles

DRAM Statistics

Channel 0 RQ ROW_BUFFER_HIT:      27803
  ROW_BUFFER_MISS:     274122
 AVG DBUS CONGESTED CYCLE: 3.869
WQ ROW_BUFFER_HIT: Channel 0 
  ROW_BUFFER_MISS:      33077
  FULL:      71871
