WARNING: physical memory size is smaller than virtual memory size.
WARNING: option --warmup_instructions is deprecated. Use --warmup-instructions instead.
WARNING: option --simulation_instructions is deprecated. Use --simulation-instructions instead.

*** ChampSim Multicore Out-of-Order Simulator ***
Warmup Instructions: 5000000
Simulation Instructions: 20000000
Number of CPUs: 1
Page size: 4096

Off-chip DRAM Size: 4 GiB Channels: 1 Width: 64-bit Data Race: 3200 MT/s
Warmup finished CPU 0 instructions: 5000000 cycles: 1273304 cumulative IPC: 3.927 (Simulation time: 00 hr 00 min 36 sec)
Warmup complete CPU 0 instructions: 5000000 cycles: 1273304 cumulative IPC: 3.927 (Simulation time: 00 hr 00 min 36 sec)
Heartbeat CPU 0 instructions: 10000002 cycles: 5494396 heartbeat IPC: 1.82 cumulative IPC: 1.185 (Simulation time: 00 hr 01 min 27 sec)
Heartbeat CPU 0 instructions: 20000000 cycles: 11385471 heartbeat IPC: 1.697 cumulative IPC: 1.483 (Simulation time: 00 hr 02 min 40 sec)
Simulation finished CPU 0 instructions: 20000000 cycles: 14651658 cumulative IPC: 1.365 (Simulation time: 00 hr 03 min 27 sec)
Simulation complete CPU 0 instructions: 20000000 cycles: 14651658 cumulative IPC: 1.365 (Simulation time: 00 hr 03 min 27 sec)

ChampSim completed all CPUs

=== Simulation ===
CPU 0 runs /home/igor/Documents/traces/627.cam4_s-490B.champsimtrace.xz
Region of Interest Statistics

CPU 0 cumulative IPC: 1.365 instructions: 20000000 cycles: 14651658
CPU 0 Branch Prediction Accuracy: 88.84% MPKI: 10.68 Average ROB Occupancy at Mispredict: 28.09
Branch type MPKI
BRANCH_DIRECT_JUMP: 0.0055
BRANCH_INDIRECT: 0
BRANCH_CONDITIONAL: 10.7
BRANCH_DIRECT_CALL: 0.0004
BRANCH_INDIRECT_CALL: 0
BRANCH_RETURN: 0.00055

LLC TOTAL        ACCESS:     348983 HIT:     256946 MISS:      92037
LLC LOAD         ACCESS:     117816 HIT:      80040 MISS:      37776
LLC RFO          ACCESS:     106839 HIT:      52642 MISS:      54197
LLC PREFETCH     ACCESS:          0 HIT:          0 MISS:          0
LLC WRITE        ACCESS:     124257 HIT:     124257 MISS:          0
LLC TRANSLATION  ACCESS:         71 HIT:          7 MISS:         64
LLC PREFETCH REQUESTED:          0 ISSUED:          0 USEFUL:          0 USELESS:          0
LLC AVERAGE MISS LATENCY: 548 cycles
cpu0_DTLB TOTAL        ACCESS:    3109728 HIT:    3089230 MISS:      20498
cpu0_DTLB LOAD         ACCESS:    3109728 HIT:    3089230 MISS:      20498
cpu0_DTLB RFO          ACCESS:          0 HIT:          0 MISS:          0
cpu0_DTLB PREFETCH     ACCESS:          0 HIT:          0 MISS:          0
cpu0_DTLB WRITE        ACCESS:          0 HIT:          0 MISS:          0
cpu0_DTLB TRANSLATION  ACCESS:          0 HIT:          0 MISS:          0
cpu0_DTLB PREFETCH REQUESTED:          0 ISSUED:          0 USEFUL:          0 USELESS:          0
cpu0_DTLB AVERAGE MISS LATENCY: 5.151 cycles
cpu0_ITLB TOTAL        ACCESS:       3554 HIT:       3532 MISS:         22
cpu0_ITLB LOAD         ACCESS:       3554 HIT:       3532 MISS:         22
cpu0_ITLB RFO          ACCESS:          0 HIT:          0 MISS:          0
cpu0_ITLB PREFETCH     ACCESS:          0 HIT:          0 MISS:          0
cpu0_ITLB WRITE        ACCESS:          0 HIT:          0 MISS:          0
cpu0_ITLB TRANSLATION  ACCESS:          0 HIT:          0 MISS:          0
cpu0_ITLB PREFETCH REQUESTED:          0 ISSUED:          0 USEFUL:          0 USELESS:          0
cpu0_ITLB AVERAGE MISS LATENCY: 126.4 cycles
cpu0_L1D TOTAL        ACCESS:    3799720 HIT:    2318427 MISS:    1481293
cpu0_L1D LOAD         ACCESS:    2485912 HIT:    1666889 MISS:     819023
cpu0_L1D RFO          ACCESS:          0 HIT:          0 MISS:          0
cpu0_L1D PREFETCH     ACCESS:          0 HIT:          0 MISS:          0
cpu0_L1D WRITE        ACCESS:    1313305 HIT:     651128 MISS:     662177
cpu0_L1D TRANSLATION  ACCESS:        503 HIT:        410 MISS:         93
cpu0_L1D PREFETCH REQUESTED:          0 ISSUED:          0 USEFUL:          0 USELESS:          0
cpu0_L1D AVERAGE MISS LATENCY: 35.36 cycles
cpu0_L1I TOTAL        ACCESS:       4407 HIT:       3464 MISS:        943
cpu0_L1I LOAD         ACCESS:       4407 HIT:       3464 MISS:        943
cpu0_L1I RFO          ACCESS:          0 HIT:          0 MISS:          0
cpu0_L1I PREFETCH     ACCESS:          0 HIT:          0 MISS:          0
cpu0_L1I WRITE        ACCESS:          0 HIT:          0 MISS:          0
cpu0_L1I TRANSLATION  ACCESS:          0 HIT:          0 MISS:          0
cpu0_L1I PREFETCH REQUESTED:          0 ISSUED:          0 USEFUL:          0 USELESS:          0
cpu0_L1I AVERAGE MISS LATENCY: 175.9 cycles
cpu0_L2C TOTAL        ACCESS:     525476 HIT:     300550 MISS:     224926
cpu0_L2C LOAD         ACCESS:     255803 HIT:     137986 MISS:     117817
cpu0_L2C RFO          ACCESS:     111841 HIT:       5002 MISS:     106839
cpu0_L2C PREFETCH     ACCESS:          0 HIT:          0 MISS:          0
cpu0_L2C WRITE        ACCESS:     157742 HIT:     157543 MISS:        199
cpu0_L2C TRANSLATION  ACCESS:         90 HIT:         19 MISS:         71
cpu0_L2C PREFETCH REQUESTED:          0 ISSUED:          0 USEFUL:          0 USELESS:          0
cpu0_L2C AVERAGE MISS LATENCY: 244.7 cycles
cpu0_STLB TOTAL        ACCESS:       6283 HIT:       5795 MISS:        488
cpu0_STLB LOAD         ACCESS:       6283 HIT:       5795 MISS:        488
cpu0_STLB RFO          ACCESS:          0 HIT:          0 MISS:          0
cpu0_STLB PREFETCH     ACCESS:          0 HIT:          0 MISS:          0
cpu0_STLB WRITE        ACCESS:          0 HIT:          0 MISS:          0
cpu0_STLB TRANSLATION  ACCESS:          0 HIT:          0 MISS:          0
cpu0_STLB PREFETCH REQUESTED:          0 ISSUED:          0 USEFUL:          0 USELESS:          0
cpu0_STLB AVERAGE MISS LATENCY: 275.4 cycles

DRAM Statistics

Channel 0 RQ ROW_BUFFER_HIT:      32297
  ROW_BUFFER_MISS:      59654
 AVG DBUS CONGESTED CYCLE: 3.97
WQ ROW_BUFFER_HIT: Channel 0 
  ROW_BUFFER_MISS:      11314
  FULL:      59684
