WARNING: physical memory size is smaller than virtual memory size.
WARNING: option --warmup_instructions is deprecated. Use --warmup-instructions instead.
WARNING: option --simulation_instructions is deprecated. Use --simulation-instructions instead.

*** ChampSim Multicore Out-of-Order Simulator ***
Warmup Instructions: 5000000
Simulation Instructions: 20000000
Number of CPUs: 1
Page size: 4096

Off-chip DRAM Size: 4 GiB Channels: 1 Width: 64-bit Data Race: 3200 MT/s
Warmup finished CPU 0 instructions: 5000003 cycles: 1250046 cumulative IPC: 4 (Simulation time: 00 hr 00 min 40 sec)
Warmup complete CPU 0 instructions: 5000003 cycles: 1250046 cumulative IPC: 4 (Simulation time: 00 hr 00 min 40 sec)
Heartbeat CPU 0 instructions: 10000001 cycles: 5395557 heartbeat IPC: 1.853 cumulative IPC: 1.206 (Simulation time: 00 hr 02 min 23 sec)
Heartbeat CPU 0 instructions: 20000000 cycles: 13641789 heartbeat IPC: 1.213 cumulative IPC: 1.21 (Simulation time: 00 hr 04 min 35 sec)
Simulation finished CPU 0 instructions: 20000004 cycles: 16516035 cumulative IPC: 1.211 (Simulation time: 00 hr 05 min 45 sec)
Simulation complete CPU 0 instructions: 20000004 cycles: 16516035 cumulative IPC: 1.211 (Simulation time: 00 hr 05 min 45 sec)

ChampSim completed all CPUs

=== Simulation ===
CPU 0 runs /home/igor/Documents/traces/649.fotonik3d_s-1176B.champsimtrace.xz
Region of Interest Statistics

CPU 0 cumulative IPC: 1.211 instructions: 20000004 cycles: 16516035
CPU 0 Branch Prediction Accuracy: 99.97% MPKI: 0.0044 Average ROB Occupancy at Mispredict: 352
Branch type MPKI
BRANCH_DIRECT_JUMP: 0
BRANCH_INDIRECT: 0
BRANCH_CONDITIONAL: 0.0044
BRANCH_DIRECT_CALL: 0
BRANCH_INDIRECT_CALL: 0
BRANCH_RETURN: 0

LLC TOTAL        ACCESS:     350732 HIT:     175309 MISS:     175423
LLC LOAD         ACCESS:     175405 HIT:          2 MISS:     175403
LLC RFO          ACCESS:          0 HIT:          0 MISS:          0
LLC PREFETCH     ACCESS:          0 HIT:          0 MISS:          0
LLC WRITE        ACCESS:     175307 HIT:     175307 MISS:          0
LLC TRANSLATION  ACCESS:         20 HIT:          0 MISS:         20
LLC PREFETCH REQUESTED:          0 ISSUED:          0 USEFUL:          0 USELESS:          0
LLC AVERAGE MISS LATENCY: 284.9 cycles
cpu0_DTLB TOTAL        ACCESS:    4082465 HIT:    4055176 MISS:      27289
cpu0_DTLB LOAD         ACCESS:    4082465 HIT:    4055176 MISS:      27289
cpu0_DTLB RFO          ACCESS:          0 HIT:          0 MISS:          0
cpu0_DTLB PREFETCH     ACCESS:          0 HIT:          0 MISS:          0
cpu0_DTLB WRITE        ACCESS:          0 HIT:          0 MISS:          0
cpu0_DTLB TRANSLATION  ACCESS:          0 HIT:          0 MISS:          0
cpu0_DTLB PREFETCH REQUESTED:          0 ISSUED:          0 USEFUL:          0 USELESS:          0
cpu0_DTLB AVERAGE MISS LATENCY: 17.24 cycles
cpu0_ITLB TOTAL        ACCESS:          0 HIT:          0 MISS:          0
cpu0_ITLB LOAD         ACCESS:          0 HIT:          0 MISS:          0
cpu0_ITLB RFO          ACCESS:          0 HIT:          0 MISS:          0
cpu0_ITLB PREFETCH     ACCESS:          0 HIT:          0 MISS:          0
cpu0_ITLB WRITE        ACCESS:          0 HIT:          0 MISS:          0
cpu0_ITLB TRANSLATION  ACCESS:          0 HIT:          0 MISS:          0
cpu0_ITLB PREFETCH REQUESTED:          0 ISSUED:          0 USEFUL:          0 USELESS:          0
cpu0_ITLB AVERAGE MISS LATENCY: -nan cycles
cpu0_L1D TOTAL        ACCESS:    6261693 HIT:    5257187 MISS:    1004506
cpu0_L1D LOAD         ACCESS:    4854826 HIT:    3851482 MISS:    1003344
cpu0_L1D RFO          ACCESS:          0 HIT:          0 MISS:          0
cpu0_L1D PREFETCH     ACCESS:          0 HIT:          0 MISS:          0
cpu0_L1D WRITE        ACCESS:    1404110 HIT:    1403057 MISS:       1053
cpu0_L1D TRANSLATION  ACCESS:       2757 HIT:       2648 MISS:        109
cpu0_L1D PREFETCH REQUESTED:          0 ISSUED:          0 USEFUL:          0 USELESS:          0
cpu0_L1D AVERAGE MISS LATENCY: 41.14 cycles
cpu0_L1I TOTAL        ACCESS:          0 HIT:          0 MISS:          0
cpu0_L1I LOAD         ACCESS:          0 HIT:          0 MISS:          0
cpu0_L1I RFO          ACCESS:          0 HIT:          0 MISS:          0
cpu0_L1I PREFETCH     ACCESS:          0 HIT:          0 MISS:          0
cpu0_L1I WRITE        ACCESS:          0 HIT:          0 MISS:          0
cpu0_L1I TRANSLATION  ACCESS:          0 HIT:          0 MISS:          0
cpu0_L1I PREFETCH REQUESTED:          0 ISSUED:          0 USEFUL:          0 USELESS:          0
cpu0_L1I AVERAGE MISS LATENCY: -nan cycles
cpu0_L2C TOTAL        ACCESS:     440485 HIT:     265059 MISS:     175426
cpu0_L2C LOAD         ACCESS:     264373 HIT:      88967 MISS:     175406
cpu0_L2C RFO          ACCESS:        308 HIT:        308 MISS:          0
cpu0_L2C PREFETCH     ACCESS:          0 HIT:          0 MISS:          0
cpu0_L2C WRITE        ACCESS:     175696 HIT:     175696 MISS:          0
cpu0_L2C TRANSLATION  ACCESS:        108 HIT:         88 MISS:         20
cpu0_L2C PREFETCH REQUESTED:          0 ISSUED:          0 USEFUL:          0 USELESS:          0
cpu0_L2C AVERAGE MISS LATENCY: 305.9 cycles
cpu0_STLB TOTAL        ACCESS:       4638 HIT:       1890 MISS:       2748
cpu0_STLB LOAD         ACCESS:       4638 HIT:       1890 MISS:       2748
cpu0_STLB RFO          ACCESS:          0 HIT:          0 MISS:          0
cpu0_STLB PREFETCH     ACCESS:          0 HIT:          0 MISS:          0
cpu0_STLB WRITE        ACCESS:          0 HIT:          0 MISS:          0
cpu0_STLB TRANSLATION  ACCESS:          0 HIT:          0 MISS:          0
cpu0_STLB PREFETCH REQUESTED:          0 ISSUED:          0 USEFUL:          0 USELESS:          0
cpu0_STLB AVERAGE MISS LATENCY: 209.9 cycles

DRAM Statistics

Channel 0 RQ ROW_BUFFER_HIT:       7421
  ROW_BUFFER_MISS:     168001
 AVG DBUS CONGESTED CYCLE: 3.975
WQ ROW_BUFFER_HIT: Channel 0 
  ROW_BUFFER_MISS:      55227
  FULL:     120023
