WARNING: physical memory size is smaller than virtual memory size.
WARNING: option --warmup_instructions is deprecated. Use --warmup-instructions instead.
WARNING: option --simulation_instructions is deprecated. Use --simulation-instructions instead.

*** ChampSim Multicore Out-of-Order Simulator ***
Warmup Instructions: 5000000
Simulation Instructions: 20000000
Number of CPUs: 1
Page size: 4096

Off-chip DRAM Size: 4 GiB Channels: 1 Width: 64-bit Data Race: 3200 MT/s
Warmup finished CPU 0 instructions: 5000003 cycles: 1250045 cumulative IPC: 4 (Simulation time: 00 hr 00 min 31 sec)
Warmup complete CPU 0 instructions: 5000003 cycles: 1250045 cumulative IPC: 4 (Simulation time: 00 hr 00 min 31 sec)
Heartbeat CPU 0 instructions: 10000002 cycles: 13432764 heartbeat IPC: 0.7444 cumulative IPC: 0.4104 (Simulation time: 00 hr 02 min 58 sec)
Heartbeat CPU 0 instructions: 20000000 cycles: 37886237 heartbeat IPC: 0.4089 cumulative IPC: 0.4094 (Simulation time: 00 hr 08 min 20 sec)
Simulation finished CPU 0 instructions: 20000001 cycles: 48853675 cumulative IPC: 0.4094 (Simulation time: 00 hr 10 min 02 sec)
Simulation complete CPU 0 instructions: 20000001 cycles: 48853675 cumulative IPC: 0.4094 (Simulation time: 00 hr 10 min 02 sec)

ChampSim completed all CPUs

=== Simulation ===
CPU 0 runs /home/igor/Documents/traces/602.gcc_s-1850B.champsimtrace.xz
Region of Interest Statistics

CPU 0 cumulative IPC: 0.4094 instructions: 20000001 cycles: 48853675
CPU 0 Branch Prediction Accuracy: 87.84% MPKI: 31.17 Average ROB Occupancy at Mispredict: 12.91
Branch type MPKI
BRANCH_DIRECT_JUMP: 0.0097
BRANCH_INDIRECT: 0
BRANCH_CONDITIONAL: 31.2
BRANCH_DIRECT_CALL: 0
BRANCH_INDIRECT_CALL: 0
BRANCH_RETURN: 0

LLC TOTAL        ACCESS:     356468 HIT:        598 MISS:     355870
LLC LOAD         ACCESS:     355256 HIT:         52 MISS:     355204
LLC RFO          ACCESS:        128 HIT:          0 MISS:        128
LLC PREFETCH     ACCESS:          0 HIT:          0 MISS:          0
LLC WRITE        ACCESS:        482 HIT:        482 MISS:          0
LLC TRANSLATION  ACCESS:        602 HIT:         64 MISS:        538
LLC PREFETCH REQUESTED:          0 ISSUED:          0 USEFUL:          0 USELESS:          0
LLC AVERAGE MISS LATENCY: 78.9 cycles
cpu0_DTLB TOTAL        ACCESS:    4879796 HIT:    4853884 MISS:      25912
cpu0_DTLB LOAD         ACCESS:    4879796 HIT:    4853884 MISS:      25912
cpu0_DTLB RFO          ACCESS:          0 HIT:          0 MISS:          0
cpu0_DTLB PREFETCH     ACCESS:          0 HIT:          0 MISS:          0
cpu0_DTLB WRITE        ACCESS:          0 HIT:          0 MISS:          0
cpu0_DTLB TRANSLATION  ACCESS:          0 HIT:          0 MISS:          0
cpu0_DTLB PREFETCH REQUESTED:          0 ISSUED:          0 USEFUL:          0 USELESS:          0
cpu0_DTLB AVERAGE MISS LATENCY: 53.87 cycles
cpu0_ITLB TOTAL        ACCESS:          0 HIT:          0 MISS:          0
cpu0_ITLB LOAD         ACCESS:          0 HIT:          0 MISS:          0
cpu0_ITLB RFO          ACCESS:          0 HIT:          0 MISS:          0
cpu0_ITLB PREFETCH     ACCESS:          0 HIT:          0 MISS:          0
cpu0_ITLB WRITE        ACCESS:          0 HIT:          0 MISS:          0
cpu0_ITLB TRANSLATION  ACCESS:          0 HIT:          0 MISS:          0
cpu0_ITLB PREFETCH REQUESTED:          0 ISSUED:          0 USEFUL:          0 USELESS:          0
cpu0_ITLB AVERAGE MISS LATENCY: -nan cycles
cpu0_L1D TOTAL        ACCESS:    6476518 HIT:    5341387 MISS:    1135131
cpu0_L1D LOAD         ACCESS:    4585564 HIT:    3451370 MISS:    1134194
cpu0_L1D RFO          ACCESS:          0 HIT:          0 MISS:          0
cpu0_L1D PREFETCH     ACCESS:          0 HIT:          0 MISS:          0
cpu0_L1D WRITE        ACCESS:    1884903 HIT:    1884760 MISS:        143
cpu0_L1D TRANSLATION  ACCESS:       6051 HIT:       5257 MISS:        794
cpu0_L1D PREFETCH REQUESTED:          0 ISSUED:          0 USEFUL:          0 USELESS:          0
cpu0_L1D AVERAGE MISS LATENCY: 34.84 cycles
cpu0_L1I TOTAL        ACCESS:          0 HIT:          0 MISS:          0
cpu0_L1I LOAD         ACCESS:          0 HIT:          0 MISS:          0
cpu0_L1I RFO          ACCESS:          0 HIT:          0 MISS:          0
cpu0_L1I PREFETCH     ACCESS:          0 HIT:          0 MISS:          0
cpu0_L1I WRITE        ACCESS:          0 HIT:          0 MISS:          0
cpu0_L1I TRANSLATION  ACCESS:          0 HIT:          0 MISS:          0
cpu0_L1I PREFETCH REQUESTED:          0 ISSUED:          0 USEFUL:          0 USELESS:          0
cpu0_L1I AVERAGE MISS LATENCY: -nan cycles
cpu0_L2C TOTAL        ACCESS:     482781 HIT:     126795 MISS:     355986
cpu0_L2C LOAD         ACCESS:     480663 HIT:     125407 MISS:     355256
cpu0_L2C RFO          ACCESS:        128 HIT:          0 MISS:        128
cpu0_L2C PREFETCH     ACCESS:          0 HIT:          0 MISS:          0
cpu0_L2C WRITE        ACCESS:       1196 HIT:       1196 MISS:          0
cpu0_L2C TRANSLATION  ACCESS:        794 HIT:        192 MISS:        602
cpu0_L2C PREFETCH REQUESTED:          0 ISSUED:          0 USEFUL:          0 USELESS:          0
cpu0_L2C AVERAGE MISS LATENCY: 99.88 cycles
cpu0_STLB TOTAL        ACCESS:       6511 HIT:        518 MISS:       5993
cpu0_STLB LOAD         ACCESS:       6511 HIT:        518 MISS:       5993
cpu0_STLB RFO          ACCESS:          0 HIT:          0 MISS:          0
cpu0_STLB PREFETCH     ACCESS:          0 HIT:          0 MISS:          0
cpu0_STLB WRITE        ACCESS:          0 HIT:          0 MISS:          0
cpu0_STLB TRANSLATION  ACCESS:          0 HIT:          0 MISS:          0
cpu0_STLB PREFETCH REQUESTED:          0 ISSUED:          0 USEFUL:          0 USELESS:          0
cpu0_STLB AVERAGE MISS LATENCY: 229 cycles

DRAM Statistics

Channel 0 RQ ROW_BUFFER_HIT:     335358
  ROW_BUFFER_MISS:      20512
 AVG DBUS CONGESTED CYCLE: 3.877
WQ ROW_BUFFER_HIT: Channel 0 
  ROW_BUFFER_MISS:        281
  FULL:        221
