WARNING: physical memory size is smaller than virtual memory size.
WARNING: option --warmup_instructions is deprecated. Use --warmup-instructions instead.
WARNING: option --simulation_instructions is deprecated. Use --simulation-instructions instead.

*** ChampSim Multicore Out-of-Order Simulator ***
Warmup Instructions: 5000000
Simulation Instructions: 20000000
Number of CPUs: 1
Page size: 4096

Off-chip DRAM Size: 4 GiB Channels: 1 Width: 64-bit Data Race: 3200 MT/s
Warmup finished CPU 0 instructions: 5000001 cycles: 1250049 cumulative IPC: 4 (Simulation time: 00 hr 00 min 29 sec)
Warmup complete CPU 0 instructions: 5000001 cycles: 1250049 cumulative IPC: 4 (Simulation time: 00 hr 00 min 29 sec)
Heartbeat CPU 0 instructions: 10000000 cycles: 2869479 heartbeat IPC: 3.485 cumulative IPC: 3.088 (Simulation time: 00 hr 01 min 08 sec)
Heartbeat CPU 0 instructions: 20000002 cycles: 6596099 heartbeat IPC: 2.683 cumulative IPC: 2.806 (Simulation time: 00 hr 02 min 32 sec)
Simulation finished CPU 0 instructions: 20000001 cycles: 7207576 cumulative IPC: 2.775 (Simulation time: 00 hr 03 min 12 sec)
Simulation complete CPU 0 instructions: 20000001 cycles: 7207576 cumulative IPC: 2.775 (Simulation time: 00 hr 03 min 12 sec)

ChampSim completed all CPUs

=== Simulation ===
CPU 0 runs /home/igor/Documents/traces/625.x264_s-12B.champsimtrace.xz
Region of Interest Statistics

CPU 0 cumulative IPC: 2.775 instructions: 20000001 cycles: 7207576
CPU 0 Branch Prediction Accuracy: 88.5% MPKI: 4.319 Average ROB Occupancy at Mispredict: 98.88
Branch type MPKI
BRANCH_DIRECT_JUMP: 0.00085
BRANCH_INDIRECT: 0.0002
BRANCH_CONDITIONAL: 4.31
BRANCH_DIRECT_CALL: 0.00035
BRANCH_INDIRECT_CALL: 0.00555
BRANCH_RETURN: 0.00145

LLC TOTAL        ACCESS:       5299 HIT:        260 MISS:       5039
LLC LOAD         ACCESS:       5052 HIT:        259 MISS:       4793
LLC RFO          ACCESS:        194 HIT:          0 MISS:        194
LLC PREFETCH     ACCESS:          0 HIT:          0 MISS:          0
LLC WRITE        ACCESS:          1 HIT:          1 MISS:          0
LLC TRANSLATION  ACCESS:         52 HIT:          0 MISS:         52
LLC PREFETCH REQUESTED:          0 ISSUED:          0 USEFUL:          0 USELESS:          0
LLC AVERAGE MISS LATENCY: 104.4 cycles
cpu0_DTLB TOTAL        ACCESS:    3456775 HIT:    3451982 MISS:       4793
cpu0_DTLB LOAD         ACCESS:    3456775 HIT:    3451982 MISS:       4793
cpu0_DTLB RFO          ACCESS:          0 HIT:          0 MISS:          0
cpu0_DTLB PREFETCH     ACCESS:          0 HIT:          0 MISS:          0
cpu0_DTLB WRITE        ACCESS:          0 HIT:          0 MISS:          0
cpu0_DTLB TRANSLATION  ACCESS:          0 HIT:          0 MISS:          0
cpu0_DTLB PREFETCH REQUESTED:          0 ISSUED:          0 USEFUL:          0 USELESS:          0
cpu0_DTLB AVERAGE MISS LATENCY: 7.763 cycles
cpu0_ITLB TOTAL        ACCESS:     202790 HIT:     202752 MISS:         38
cpu0_ITLB LOAD         ACCESS:     202790 HIT:     202752 MISS:         38
cpu0_ITLB RFO          ACCESS:          0 HIT:          0 MISS:          0
cpu0_ITLB PREFETCH     ACCESS:          0 HIT:          0 MISS:          0
cpu0_ITLB WRITE        ACCESS:          0 HIT:          0 MISS:          0
cpu0_ITLB TRANSLATION  ACCESS:          0 HIT:          0 MISS:          0
cpu0_ITLB PREFETCH REQUESTED:          0 ISSUED:          0 USEFUL:          0 USELESS:          0
cpu0_ITLB AVERAGE MISS LATENCY: 103.3 cycles
cpu0_L1D TOTAL        ACCESS:    4462476 HIT:    4418881 MISS:      43595
cpu0_L1D LOAD         ACCESS:    3250309 HIT:    3207202 MISS:      43107
cpu0_L1D RFO          ACCESS:          0 HIT:          0 MISS:          0
cpu0_L1D PREFETCH     ACCESS:          0 HIT:          0 MISS:          0
cpu0_L1D WRITE        ACCESS:    1212053 HIT:    1211673 MISS:        380
cpu0_L1D TRANSLATION  ACCESS:        114 HIT:          6 MISS:        108
cpu0_L1D PREFETCH REQUESTED:          0 ISSUED:          0 USEFUL:          0 USELESS:          0
cpu0_L1D AVERAGE MISS LATENCY: 15.02 cycles
cpu0_L1I TOTAL        ACCESS:     251898 HIT:     251670 MISS:        228
cpu0_L1I LOAD         ACCESS:     251898 HIT:     251670 MISS:        228
cpu0_L1I RFO          ACCESS:          0 HIT:          0 MISS:          0
cpu0_L1I PREFETCH     ACCESS:          0 HIT:          0 MISS:          0
cpu0_L1I WRITE        ACCESS:          0 HIT:          0 MISS:          0
cpu0_L1I TRANSLATION  ACCESS:          0 HIT:          0 MISS:          0
cpu0_L1I PREFETCH REQUESTED:          0 ISSUED:          0 USEFUL:          0 USELESS:          0
cpu0_L1I AVERAGE MISS LATENCY: 106.7 cycles
cpu0_L2C TOTAL        ACCESS:      10145 HIT:       4841 MISS:       5304
cpu0_L2C LOAD         ACCESS:       9700 HIT:       4648 MISS:       5052
cpu0_L2C RFO          ACCESS:        196 HIT:          2 MISS:        194
cpu0_L2C PREFETCH     ACCESS:          0 HIT:          0 MISS:          0
cpu0_L2C WRITE        ACCESS:        141 HIT:        135 MISS:          6
cpu0_L2C TRANSLATION  ACCESS:        108 HIT:         56 MISS:         52
cpu0_L2C PREFETCH REQUESTED:          0 ISSUED:          0 USEFUL:          0 USELESS:          0
cpu0_L2C AVERAGE MISS LATENCY: 120.1 cycles
cpu0_STLB TOTAL        ACCESS:       2106 HIT:       1992 MISS:        114
cpu0_STLB LOAD         ACCESS:       2106 HIT:       1992 MISS:        114
cpu0_STLB RFO          ACCESS:          0 HIT:          0 MISS:          0
cpu0_STLB PREFETCH     ACCESS:          0 HIT:          0 MISS:          0
cpu0_STLB WRITE        ACCESS:          0 HIT:          0 MISS:          0
cpu0_STLB TRANSLATION  ACCESS:          0 HIT:          0 MISS:          0
cpu0_STLB PREFETCH REQUESTED:          0 ISSUED:          0 USEFUL:          0 USELESS:          0
cpu0_STLB AVERAGE MISS LATENCY: 304.1 cycles

DRAM Statistics

Channel 0 RQ ROW_BUFFER_HIT:       3644
  ROW_BUFFER_MISS:       1395
 AVG DBUS CONGESTED CYCLE: 3.453
WQ ROW_BUFFER_HIT: Channel 0 
  ROW_BUFFER_MISS:          0
  FULL:          0
