WARNING: physical memory size is smaller than virtual memory size.
WARNING: option --warmup_instructions is deprecated. Use --warmup-instructions instead.
WARNING: option --simulation_instructions is deprecated. Use --simulation-instructions instead.

*** ChampSim Multicore Out-of-Order Simulator ***
Warmup Instructions: 5000000
Simulation Instructions: 20000000
Number of CPUs: 1
Page size: 4096

Off-chip DRAM Size: 4 GiB Channels: 1 Width: 64-bit Data Race: 3200 MT/s
Warmup finished CPU 0 instructions: 5000004 cycles: 1279280 cumulative IPC: 3.908 (Simulation time: 00 hr 00 min 37 sec)
Warmup complete CPU 0 instructions: 5000004 cycles: 1279280 cumulative IPC: 3.908 (Simulation time: 00 hr 00 min 37 sec)
Heartbeat CPU 0 instructions: 10000002 cycles: 3581013 heartbeat IPC: 2.793 cumulative IPC: 2.172 (Simulation time: 00 hr 01 min 36 sec)
Heartbeat CPU 0 instructions: 20000003 cycles: 8355467 heartbeat IPC: 2.094 cumulative IPC: 2.12 (Simulation time: 00 hr 03 min 40 sec)
Simulation finished CPU 0 instructions: 20000001 cycles: 9463415 cumulative IPC: 2.113 (Simulation time: 00 hr 04 min 41 sec)
Simulation complete CPU 0 instructions: 20000001 cycles: 9463415 cumulative IPC: 2.113 (Simulation time: 00 hr 04 min 41 sec)

ChampSim completed all CPUs

=== Simulation ===
CPU 0 runs /home/igor/Documents/traces/628.pop2_s-17B.champsimtrace.xz
Region of Interest Statistics

CPU 0 cumulative IPC: 2.113 instructions: 20000001 cycles: 9463415
CPU 0 Branch Prediction Accuracy: 96.27% MPKI: 4.264 Average ROB Occupancy at Mispredict: 93.04
Branch type MPKI
BRANCH_DIRECT_JUMP: 0.0512
BRANCH_INDIRECT: 0.0016
BRANCH_CONDITIONAL: 4.21
BRANCH_DIRECT_CALL: 0
BRANCH_INDIRECT_CALL: 0
BRANCH_RETURN: 0

LLC TOTAL        ACCESS:     219710 HIT:     158918 MISS:      60792
LLC LOAD         ACCESS:     133148 HIT:      77504 MISS:      55644
LLC RFO          ACCESS:      29733 HIT:      25400 MISS:       4333
LLC PREFETCH     ACCESS:          0 HIT:          0 MISS:          0
LLC WRITE        ACCESS:      55695 HIT:      55598 MISS:         97
LLC TRANSLATION  ACCESS:       1134 HIT:        416 MISS:        718
LLC PREFETCH REQUESTED:          0 ISSUED:          0 USEFUL:          0 USELESS:          0
LLC AVERAGE MISS LATENCY: 187.5 cycles
cpu0_DTLB TOTAL        ACCESS:    4325460 HIT:    4284830 MISS:      40630
cpu0_DTLB LOAD         ACCESS:    4325460 HIT:    4284830 MISS:      40630
cpu0_DTLB RFO          ACCESS:          0 HIT:          0 MISS:          0
cpu0_DTLB PREFETCH     ACCESS:          0 HIT:          0 MISS:          0
cpu0_DTLB WRITE        ACCESS:          0 HIT:          0 MISS:          0
cpu0_DTLB TRANSLATION  ACCESS:          0 HIT:          0 MISS:          0
cpu0_DTLB PREFETCH REQUESTED:          0 ISSUED:          0 USEFUL:          0 USELESS:          0
cpu0_DTLB AVERAGE MISS LATENCY: 10.87 cycles
cpu0_ITLB TOTAL        ACCESS:      74158 HIT:      71111 MISS:       3047
cpu0_ITLB LOAD         ACCESS:      74158 HIT:      71111 MISS:       3047
cpu0_ITLB RFO          ACCESS:          0 HIT:          0 MISS:          0
cpu0_ITLB PREFETCH     ACCESS:          0 HIT:          0 MISS:          0
cpu0_ITLB WRITE        ACCESS:          0 HIT:          0 MISS:          0
cpu0_ITLB TRANSLATION  ACCESS:          0 HIT:          0 MISS:          0
cpu0_ITLB PREFETCH REQUESTED:          0 ISSUED:          0 USEFUL:          0 USELESS:          0
cpu0_ITLB AVERAGE MISS LATENCY: 1.395 cycles
cpu0_L1D TOTAL        ACCESS:    5217300 HIT:    3942691 MISS:    1274609
cpu0_L1D LOAD         ACCESS:    3702991 HIT:    2828767 MISS:     874224
cpu0_L1D RFO          ACCESS:          0 HIT:          0 MISS:          0
cpu0_L1D PREFETCH     ACCESS:          0 HIT:          0 MISS:          0
cpu0_L1D WRITE        ACCESS:    1512957 HIT:    1113857 MISS:     399100
cpu0_L1D TRANSLATION  ACCESS:       1352 HIT:         67 MISS:       1285
cpu0_L1D PREFETCH REQUESTED:          0 ISSUED:          0 USEFUL:          0 USELESS:          0
cpu0_L1D AVERAGE MISS LATENCY: 9.985 cycles
cpu0_L1I TOTAL        ACCESS:      92158 HIT:      46389 MISS:      45769
cpu0_L1I LOAD         ACCESS:      92158 HIT:      46389 MISS:      45769
cpu0_L1I RFO          ACCESS:          0 HIT:          0 MISS:          0
cpu0_L1I PREFETCH     ACCESS:          0 HIT:          0 MISS:          0
cpu0_L1I WRITE        ACCESS:          0 HIT:          0 MISS:          0
cpu0_L1I TRANSLATION  ACCESS:          0 HIT:          0 MISS:          0
cpu0_L1I PREFETCH REQUESTED:          0 ISSUED:          0 USEFUL:          0 USELESS:          0
cpu0_L1I AVERAGE MISS LATENCY: 13.86 cycles
cpu0_L2C TOTAL        ACCESS:     601753 HIT:     437234 MISS:     164519
cpu0_L2C LOAD         ACCESS:     328458 HIT:     195310 MISS:     133148
cpu0_L2C RFO          ACCESS:     109085 HIT:      79352 MISS:      29733
cpu0_L2C PREFETCH     ACCESS:          0 HIT:          0 MISS:          0
cpu0_L2C WRITE        ACCESS:     162964 HIT:     162460 MISS:        504
cpu0_L2C TRANSLATION  ACCESS:       1246 HIT:        112 MISS:       1134
cpu0_L2C PREFETCH REQUESTED:          0 ISSUED:          0 USEFUL:          0 USELESS:          0
cpu0_L2C AVERAGE MISS LATENCY: 89.61 cycles
cpu0_STLB TOTAL        ACCESS:      17578 HIT:      16592 MISS:        986
cpu0_STLB LOAD         ACCESS:      17578 HIT:      16592 MISS:        986
cpu0_STLB RFO          ACCESS:          0 HIT:          0 MISS:          0
cpu0_STLB PREFETCH     ACCESS:          0 HIT:          0 MISS:          0
cpu0_STLB WRITE        ACCESS:          0 HIT:          0 MISS:          0
cpu0_STLB TRANSLATION  ACCESS:          0 HIT:          0 MISS:          0
cpu0_STLB PREFETCH REQUESTED:          0 ISSUED:          0 USEFUL:          0 USELESS:          0
cpu0_STLB AVERAGE MISS LATENCY: 482.8 cycles

DRAM Statistics

Channel 0 RQ ROW_BUFFER_HIT:      30118
  ROW_BUFFER_MISS:      30577
 AVG DBUS CONGESTED CYCLE: 3.836
WQ ROW_BUFFER_HIT: Channel 0 
  ROW_BUFFER_MISS:       2519
  FULL:      12175
